Program Version,EnergyPlus, Version 8.9.0-eba93e8e1b, YMD=2018.07.11 10:44
! This file shows details about the branches, nodes, and other
! elements of the flow connections.
! This file is intended for use in "debugging" potential problems
! that may also be detected by the program, but may be more easily
! identified by "eye".
! This file is also intended to support software which draws a
! schematic diagram of the HVAC system.
! ===============================================================
! #Nodes,<Number of Unique Nodes>
 #Nodes,104
! <Node>,<NodeNumber>,<Node Name>,<Node Fluid Type>,<# Times Node Referenced After Definition>
 Node,1,NODE 8,Air,3
 Node,2,NODE 18,Air,3
 Node,3,NODE 7,Air,3
 Node,4,NODE 17,Air,3
 Node,5,NODE 14,Air,3
 Node,6,NODE 20,Air,3
 Node,7,NODE 13,Air,3
 Node,8,NODE 19,Air,3
 Node,9,NODE 16,Air,3
 Node,10,NODE 22,Air,3
 Node,11,NODE 15,Air,3
 Node,12,NODE 21,Air,3
 Node,13,NODE 10,Air,3
 Node,14,NODE 24,Air,3
 Node,15,NODE 9,Air,3
 Node,16,NODE 23,Air,3
 Node,17,NODE 12,Air,3
 Node,18,NODE 26,Air,3
 Node,19,NODE 11,Air,3
 Node,20,NODE 25,Air,3
 Node,21,NODE 52,Water,2
 Node,22,NODE 58,Water,1
 Node,23,NODE 54,Water,1
 Node,24,NODE 59,Water,1
 Node,25,NODE 60,Water,1
 Node,26,NODE 61,Water,1
 Node,27,NODE 63,Water,1
 Node,28,NODE 53,Water,4
 Node,29,NODE 55,Water,2
 Node,30,NODE 64,Water,1
 Node,31,NODE 57,Water,1
 Node,32,NODE 62,Water,1
 Node,33,NODE 66,Water,1
 Node,34,NODE 67,Water,1
 Node,35,MAIN SERVICE WATER LOOP DEMAND BYPASS PIPE INLET NODE,Water,1
 Node,36,MAIN SERVICE WATER LOOP DEMAND BYPASS PIPE OUTLET NODE,Water,1
 Node,37,NODE 65,Water,1
 Node,38,NODE 56,Water,2
 Node,39,NODE 6,Air,0
 Node,40,CORE_ZN ZN RETURN AIR NODE,Air,0
 Node,41,NODE 1,Air,0
 Node,42,PERIMETER_ZN_1 ZN RETURN AIR NODE,Air,0
 Node,43,NODE 3,Air,0
 Node,44,PERIMETER_ZN_2 ZN RETURN AIR NODE,Air,0
 Node,45,NODE 4,Air,0
 Node,46,PERIMETER_ZN_3 ZN RETURN AIR NODE,Air,0
 Node,47,NODE 5,Air,0
 Node,48,PERIMETER_ZN_4 ZN RETURN AIR NODE,Air,0
 Node,49,ZONE1PTHP OA NODE,Air,1
 Node,50,VRF ZONE TERMINAL OUTDOOR AIR NODE,Air,1
 Node,51,ZONE2PTHP OA NODE,Air,1
 Node,52,VRF ZONE TERMINAL 1 OUTDOOR AIR NODE,Air,1
 Node,53,ZONE3PTHP OA NODE,Air,1
 Node,54,VRF ZONE TERMINAL 2 OUTDOOR AIR NODE,Air,1
 Node,55,ZONE4PTHP OA NODE,Air,1
 Node,56,VRF ZONE TERMINAL 3 OUTDOOR AIR NODE,Air,1
 Node,57,ZONE5PTHP OA NODE,Air,1
 Node,58,VRF ZONE TERMINAL 4 OUTDOOR AIR NODE,Air,1
 Node,59,MODEL OUTDOOR AIR NODE,Air,0
 Node,60,ZONE1PTHP MIXED AIR NODE,Air,1
 Node,61,ZONE1PTHP RELIEF AIR NODE,Air,0
 Node,62,VRF ZONE TERMINAL MIXER OUTLET NODE,Air,1
 Node,63,VRF ZONE TERMINAL RELIEF NODE NAME,Air,0
 Node,64,ZONE2PTHP MIXED AIR NODE,Air,1
 Node,65,ZONE2PTHP RELIEF AIR NODE,Air,0
 Node,66,VRF ZONE TERMINAL 1 MIXER OUTLET NODE,Air,1
 Node,67,VRF ZONE TERMINAL 1 RELIEF NODE NAME,Air,0
 Node,68,ZONE3PTHP MIXED AIR NODE,Air,1
 Node,69,ZONE3PTHP RELIEF AIR NODE,Air,0
 Node,70,VRF ZONE TERMINAL 2 MIXER OUTLET NODE,Air,1
 Node,71,VRF ZONE TERMINAL 2 RELIEF NODE NAME,Air,0
 Node,72,ZONE4PTHP MIXED AIR NODE,Air,1
 Node,73,ZONE4PTHP RELIEF AIR NODE,Air,0
 Node,74,VRF ZONE TERMINAL 3 MIXER OUTLET NODE,Air,1
 Node,75,VRF ZONE TERMINAL 3 RELIEF NODE NAME,Air,0
 Node,76,ZONE5PTHP MIXED AIR NODE,Air,1
 Node,77,ZONE5PTHP RELIEF AIR NODE,Air,0
 Node,78,VRF ZONE TERMINAL 4 MIXER OUTLET NODE,Air,1
 Node,79,VRF ZONE TERMINAL 4 RELIEF NODE NAME,Air,0
 Node,80,ZONE1PTHP HEATING COIL OUTLET NODE,Air,1
 Node,81,ZONE1PTHP FAN OUTLET NODE,Air,1
 Node,82,ZONE2PTHP HEATING COIL OUTLET NODE,Air,1
 Node,83,ZONE2PTHP FAN OUTLET NODE,Air,1
 Node,84,ZONE3PTHP HEATING COIL OUTLET NODE,Air,1
 Node,85,ZONE3PTHP FAN OUTLET NODE,Air,1
 Node,86,ZONE4PTHP HEATING COIL OUTLET NODE,Air,1
 Node,87,ZONE4PTHP FAN OUTLET NODE,Air,1
 Node,88,ZONE5PTHP HEATING COIL OUTLET NODE,Air,1
 Node,89,ZONE5PTHP FAN OUTLET NODE,Air,1
 Node,90,VRF ZONE TERMINAL HEATING COIL OUTLET NODE,Air,1
 Node,91,VRF ZONE TERMINAL 1 HEATING COIL OUTLET NODE,Air,1
 Node,92,VRF ZONE TERMINAL 2 HEATING COIL OUTLET NODE,Air,1
 Node,93,VRF ZONE TERMINAL 3 HEATING COIL OUTLET NODE,Air,1
 Node,94,VRF ZONE TERMINAL 4 HEATING COIL OUTLET NODE,Air,1
 Node,95,ZONE1PTHP COOLING COIL OUTLET NODE,Air,1
 Node,96,ZONE2PTHP COOLING COIL OUTLET NODE,Air,1
 Node,97,ZONE3PTHP COOLING COIL OUTLET NODE,Air,1
 Node,98,ZONE4PTHP COOLING COIL OUTLET NODE,Air,1
 Node,99,ZONE5PTHP COOLING COIL OUTLET NODE,Air,1
 Node,100,VRF ZONE TERMINAL COOLING COIL OUTLET NODE,Air,1
 Node,101,VRF ZONE TERMINAL 1 COOLING COIL OUTLET NODE,Air,1
 Node,102,VRF ZONE TERMINAL 2 COOLING COIL OUTLET NODE,Air,1
 Node,103,VRF ZONE TERMINAL 3 COOLING COIL OUTLET NODE,Air,1
 Node,104,VRF ZONE TERMINAL 4 COOLING COIL OUTLET NODE,Air,1
! ===============================================================
! Suspicious nodes have 0 references.  It is normal for some nodes, however.
! Listing nodes with 0 references (culled from previous list):
! <Suspicious Node>,<NodeNumber>,<Node Name>,<Node Fluid Type>,<# Times Node Referenced After Definition>
 Suspicious Node,39,NODE 6,Air,0
 Suspicious Node,40,CORE_ZN ZN RETURN AIR NODE,Air,0
 Suspicious Node,41,NODE 1,Air,0
 Suspicious Node,42,PERIMETER_ZN_1 ZN RETURN AIR NODE,Air,0
 Suspicious Node,43,NODE 3,Air,0
 Suspicious Node,44,PERIMETER_ZN_2 ZN RETURN AIR NODE,Air,0
 Suspicious Node,45,NODE 4,Air,0
 Suspicious Node,46,PERIMETER_ZN_3 ZN RETURN AIR NODE,Air,0
 Suspicious Node,47,NODE 5,Air,0
 Suspicious Node,48,PERIMETER_ZN_4 ZN RETURN AIR NODE,Air,0
 Suspicious Node,59,MODEL OUTDOOR AIR NODE,Air,0
 Suspicious Node,61,ZONE1PTHP RELIEF AIR NODE,Air,0
 Suspicious Node,63,VRF ZONE TERMINAL RELIEF NODE NAME,Air,0
 Suspicious Node,65,ZONE2PTHP RELIEF AIR NODE,Air,0
 Suspicious Node,67,VRF ZONE TERMINAL 1 RELIEF NODE NAME,Air,0
 Suspicious Node,69,ZONE3PTHP RELIEF AIR NODE,Air,0
 Suspicious Node,71,VRF ZONE TERMINAL 2 RELIEF NODE NAME,Air,0
 Suspicious Node,73,ZONE4PTHP RELIEF AIR NODE,Air,0
 Suspicious Node,75,VRF ZONE TERMINAL 3 RELIEF NODE NAME,Air,0
 Suspicious Node,77,ZONE5PTHP RELIEF AIR NODE,Air,0
 Suspicious Node,79,VRF ZONE TERMINAL 4 RELIEF NODE NAME,Air,0
! ===============================================================
! <#Branch Lists>,<Number of Branch Lists>
 #Branch Lists,2
! <Branch List>,<Branch List Count>,<Branch List Name>,<Loop Name>,<Loop Type>,<Number of Branches>
! <Branch>,<Branch Count>,<Branch Name>,<Loop Name>,<Loop Type>,<Branch Inlet Node Name>,<Branch Outlet Node Name>
 Branch List,1,MAIN SERVICE WATER LOOP SUPPLY BRANCHES,MAIN SERVICE WATER LOOP,Plant Supply,4
   Branch,1,MAIN SERVICE WATER LOOP SUPPLY INLET BRANCH,MAIN SERVICE WATER LOOP,Plant Supply,NODE 52,NODE 58
   Branch,2,MAIN SERVICE WATER LOOP SUPPLY BRANCH 1,MAIN SERVICE WATER LOOP,Plant Supply,NODE 54,NODE 59
   Branch,3,MAIN SERVICE WATER LOOP SUPPLY BRANCH 2,MAIN SERVICE WATER LOOP,Plant Supply,NODE 60,NODE 61
   Branch,4,MAIN SERVICE WATER LOOP SUPPLY OUTLET BRANCH,MAIN SERVICE WATER LOOP,Plant Supply,NODE 63,NODE 53
 Branch List,2,MAIN SERVICE WATER LOOP DEMAND BRANCHES,MAIN SERVICE WATER LOOP,Plant Demand,5
   Branch,1,MAIN SERVICE WATER LOOP DEMAND INLET BRANCH,MAIN SERVICE WATER LOOP,Plant Demand,NODE 55,NODE 64
   Branch,2,MAIN SERVICE WATER LOOP DEMAND BRANCH 1,MAIN SERVICE WATER LOOP,Plant Demand,NODE 57,NODE 62
   Branch,3,MAIN SERVICE WATER LOOP DEMAND BRANCH 2,MAIN SERVICE WATER LOOP,Plant Demand,NODE 66,NODE 67
   Branch,4,MAIN SERVICE WATER LOOP DEMAND BYPASS BRANCH,MAIN SERVICE WATER LOOP,Plant Demand,MAIN SERVICE WATER LOOP DEMAND BYPASS PIPE INLET NODE,MAIN SERVICE WATER LOOP DEMAND BYPASS PIPE OUTLET NODE
   Branch,5,MAIN SERVICE WATER LOOP DEMAND OUTLET BRANCH,MAIN SERVICE WATER LOOP,Plant Demand,NODE 65,NODE 56
! ===============================================================
! <#Supply Air Paths>,<Number of Supply Air Paths>
 #Supply Air Paths,0
! <Supply Air Path>,<Supply Air Path Count>,<Supply Air Path Name>,<AirLoopHVAC Name>
! <#Components on Supply Air Path>,<Number of Components>
! <Supply Air Path Component>,<Component Count>,<Component Type>,<Component Name>,<AirLoopHVAC Name>
! <#Outlet Nodes on Supply Air Path Component>,<Number of Nodes>
! <Supply Air Path Component Nodes>,<Node Count>,<Component Type>,<Component Name>,<Inlet Node Name>,<Outlet Node Name>,<AirLoopHVAC Name>
! ===============================================================
! <#Return Air Paths>,<Number of Return Air Paths>
 #Return Air Paths,0
! <Return Air Path>,<Return Air Path Count>,<Return Air Path Name>,<AirLoopHVAC Name>
! <#Components on Return Air Path>,<Number of Components>
! <Return Air Path Component>,<Component Count>,<Component Type>,<Component Name>,<AirLoopHVAC Name>
! <#Inlet Nodes on Return Air Path Component>,<Number of Nodes>
! <Return Air Path Component Nodes>,<Node Count>,<Component Type>,<Component Name>,<Inlet Node Name>,<Outlet Node Name>,<AirLoopHVAC Name>
! ===============================================================
! #Outdoor Air Nodes,<Number of Outdoor Air Nodes>
 #Outdoor Air Nodes,11
! <Outdoor Air Node>,<NodeNumber>,<Node Name>
 Outdoor Air Node,49,ZONE1PTHP OA NODE
 Outdoor Air Node,50,VRF ZONE TERMINAL OUTDOOR AIR NODE
 Outdoor Air Node,51,ZONE2PTHP OA NODE
 Outdoor Air Node,52,VRF ZONE TERMINAL 1 OUTDOOR AIR NODE
 Outdoor Air Node,53,ZONE3PTHP OA NODE
 Outdoor Air Node,54,VRF ZONE TERMINAL 2 OUTDOOR AIR NODE
 Outdoor Air Node,55,ZONE4PTHP OA NODE
 Outdoor Air Node,56,VRF ZONE TERMINAL 3 OUTDOOR AIR NODE
 Outdoor Air Node,57,ZONE5PTHP OA NODE
 Outdoor Air Node,58,VRF ZONE TERMINAL 4 OUTDOOR AIR NODE
 Outdoor Air Node,59,MODEL OUTDOOR AIR NODE
! ===============================================================
! <#Component Sets>,<Number of Component Sets>
 #Component Sets,54
! <Component Set>,<Component Set Count>,<Parent Object Type>,<Parent Object Name>,<Component Type>,<Component Name>,<Inlet Node ID>,<Outlet Node ID>,<Description>
 Component Set,1,BRANCH,MAIN SERVICE WATER LOOP SUPPLY INLET BRANCH,PUMP:CONSTANTSPEED,SERVICE WATER LOOP PUMP,NODE 52,NODE 58,Water Nodes
 Component Set,2,BRANCH,MAIN SERVICE WATER LOOP SUPPLY BRANCH 1,WATERHEATER:MIXED,40.0GAL ELECTRICITY WATER HEATER - 40KBTU/HR 1.0 THERM EFF,NODE 54,NODE 59,Use Side Water Nodes
 Component Set,3,BRANCH,MAIN SERVICE WATER LOOP SUPPLY BRANCH 2,PIPE:ADIABATIC,PIPE ADIABATIC 1,NODE 60,NODE 61,Pipe Nodes
 Component Set,4,BRANCH,MAIN SERVICE WATER LOOP SUPPLY OUTLET BRANCH,PIPE:ADIABATIC,PIPE ADIABATIC 3,NODE 63,NODE 53,Pipe Nodes
 Component Set,5,BRANCH,MAIN SERVICE WATER LOOP DEMAND INLET BRANCH,PIPE:ADIABATIC,PIPE ADIABATIC 4,NODE 55,NODE 64,Pipe Nodes
 Component Set,6,BRANCH,MAIN SERVICE WATER LOOP DEMAND BRANCH 1,PIPE:ADIABATIC,PIPE ADIABATIC 2,NODE 57,NODE 62,Pipe Nodes
 Component Set,7,BRANCH,MAIN SERVICE WATER LOOP DEMAND BRANCH 2,WATERUSE:CONNECTIONS,WATER USE CONNECTIONS 1,NODE 66,NODE 67,DHW Nodes
 Component Set,8,BRANCH,MAIN SERVICE WATER LOOP DEMAND BYPASS BRANCH,PIPE:ADIABATIC,MAIN SERVICE WATER LOOP DEMAND BYPASS PIPE,MAIN SERVICE WATER LOOP DEMAND BYPASS PIPE INLET NODE,MAIN SERVICE WATER LOOP DEMAND BYPASS PIPE OUTLET NODE,Pipe Nodes
 Component Set,9,BRANCH,MAIN SERVICE WATER LOOP DEMAND OUTLET BRANCH,PIPE:ADIABATIC,PIPE ADIABATIC 5,NODE 65,NODE 56,Pipe Nodes
 Component Set,10,ZONEHVAC:PACKAGEDTERMINALHEATPUMP,ZONE1PTHP,OUTDOORAIR:MIXER,ZONE1PTHP OA MIXER,ZONE1PTHP OA NODE,ZONE1PTHP MIXED AIR NODE,Air Nodes
 Component Set,11,ZONEHVAC:TERMINALUNIT:VARIABLEREFRIGERANTFLOW,VRF ZONE TERMINAL,OUTDOORAIR:MIXER,VRF ZONE TERMINAL OA MIXER,VRF ZONE TERMINAL OUTDOOR AIR NODE,VRF ZONE TERMINAL MIXER OUTLET NODE,Air Nodes
 Component Set,12,ZONEHVAC:PACKAGEDTERMINALHEATPUMP,ZONE2PTHP,OUTDOORAIR:MIXER,ZONE2PTHP OA MIXER,ZONE2PTHP OA NODE,ZONE2PTHP MIXED AIR NODE,Air Nodes
 Component Set,13,ZONEHVAC:TERMINALUNIT:VARIABLEREFRIGERANTFLOW,VRF ZONE TERMINAL 1,OUTDOORAIR:MIXER,VRF ZONE TERMINAL 1 OA MIXER,VRF ZONE TERMINAL 1 OUTDOOR AIR NODE,VRF ZONE TERMINAL 1 MIXER OUTLET NODE,Air Nodes
 Component Set,14,ZONEHVAC:PACKAGEDTERMINALHEATPUMP,ZONE3PTHP,OUTDOORAIR:MIXER,ZONE3PTHP OA MIXER,ZONE3PTHP OA NODE,ZONE3PTHP MIXED AIR NODE,Air Nodes
 Component Set,15,ZONEHVAC:TERMINALUNIT:VARIABLEREFRIGERANTFLOW,VRF ZONE TERMINAL 2,OUTDOORAIR:MIXER,VRF ZONE TERMINAL 2 OA MIXER,VRF ZONE TERMINAL 2 OUTDOOR AIR NODE,VRF ZONE TERMINAL 2 MIXER OUTLET NODE,Air Nodes
 Component Set,16,ZONEHVAC:PACKAGEDTERMINALHEATPUMP,ZONE4PTHP,OUTDOORAIR:MIXER,ZONE4PTHP OA MIXER,ZONE4PTHP OA NODE,ZONE4PTHP MIXED AIR NODE,Air Nodes
 Component Set,17,ZONEHVAC:TERMINALUNIT:VARIABLEREFRIGERANTFLOW,VRF ZONE TERMINAL 3,OUTDOORAIR:MIXER,VRF ZONE TERMINAL 3 OA MIXER,VRF ZONE TERMINAL 3 OUTDOOR AIR NODE,VRF ZONE TERMINAL 3 MIXER OUTLET NODE,Air Nodes
 Component Set,18,ZONEHVAC:PACKAGEDTERMINALHEATPUMP,ZONE5PTHP,OUTDOORAIR:MIXER,ZONE5PTHP OA MIXER,ZONE5PTHP OA NODE,ZONE5PTHP MIXED AIR NODE,Air Nodes
 Component Set,19,ZONEHVAC:TERMINALUNIT:VARIABLEREFRIGERANTFLOW,VRF ZONE TERMINAL 4,OUTDOORAIR:MIXER,VRF ZONE TERMINAL 4 OA MIXER,VRF ZONE TERMINAL 4 OUTDOOR AIR NODE,VRF ZONE TERMINAL 4 MIXER OUTLET NODE,Air Nodes
 Component Set,20,ZONEHVAC:PACKAGEDTERMINALHEATPUMP,ZONE1PTHP,FAN:CONSTANTVOLUME,ZONE1PTHPFAN,ZONE1PTHP HEATING COIL OUTLET NODE,ZONE1PTHP FAN OUTLET NODE,Air Nodes
 Component Set,21,ZONEHVAC:PACKAGEDTERMINALHEATPUMP,ZONE2PTHP,FAN:CONSTANTVOLUME,ZONE1PTHPFAN 3,ZONE2PTHP HEATING COIL OUTLET NODE,ZONE2PTHP FAN OUTLET NODE,Air Nodes
 Component Set,22,ZONEHVAC:PACKAGEDTERMINALHEATPUMP,ZONE3PTHP,FAN:CONSTANTVOLUME,ZONE3PTHPFAN,ZONE3PTHP HEATING COIL OUTLET NODE,ZONE3PTHP FAN OUTLET NODE,Air Nodes
 Component Set,23,ZONEHVAC:PACKAGEDTERMINALHEATPUMP,ZONE4PTHP,FAN:CONSTANTVOLUME,ZONE4PTHPFAN,ZONE4PTHP HEATING COIL OUTLET NODE,ZONE4PTHP FAN OUTLET NODE,Air Nodes
 Component Set,24,ZONEHVAC:PACKAGEDTERMINALHEATPUMP,ZONE5PTHP,FAN:CONSTANTVOLUME,ZONE5PTHPFAN,ZONE5PTHP HEATING COIL OUTLET NODE,ZONE5PTHP FAN OUTLET NODE,Air Nodes
 Component Set,25,ZONEHVAC:TERMINALUNIT:VARIABLEREFRIGERANTFLOW,VRF ZONE TERMINAL,FAN:ONOFF,VRF ZONE TERMINAL FAN,VRF ZONE TERMINAL HEATING COIL OUTLET NODE,NODE 18,Air Nodes
 Component Set,26,ZONEHVAC:TERMINALUNIT:VARIABLEREFRIGERANTFLOW,VRF ZONE TERMINAL 1,FAN:ONOFF,VRF ZONE TERMINAL FAN 1,VRF ZONE TERMINAL 1 HEATING COIL OUTLET NODE,NODE 20,Air Nodes
 Component Set,27,ZONEHVAC:TERMINALUNIT:VARIABLEREFRIGERANTFLOW,VRF ZONE TERMINAL 2,FAN:ONOFF,VRF ZONE TERMINAL FAN 2,VRF ZONE TERMINAL 2 HEATING COIL OUTLET NODE,NODE 22,Air Nodes
 Component Set,28,ZONEHVAC:TERMINALUNIT:VARIABLEREFRIGERANTFLOW,VRF ZONE TERMINAL 3,FAN:ONOFF,VRF ZONE TERMINAL FAN 3,VRF ZONE TERMINAL 3 HEATING COIL OUTLET NODE,NODE 24,Air Nodes
 Component Set,29,ZONEHVAC:TERMINALUNIT:VARIABLEREFRIGERANTFLOW,VRF ZONE TERMINAL 4,FAN:ONOFF,VRF ZONE TERMINAL FAN 4,VRF ZONE TERMINAL 4 HEATING COIL OUTLET NODE,NODE 26,Air Nodes
 Component Set,30,ZONEHVAC:PACKAGEDTERMINALHEATPUMP,ZONE1PTHP,COIL:COOLING:DX:SINGLESPEED,ZONE1PTHPDXCOOLCOIL,ZONE1PTHP MIXED AIR NODE,ZONE1PTHP COOLING COIL OUTLET NODE,Air Nodes
 Component Set,31,ZONEHVAC:PACKAGEDTERMINALHEATPUMP,ZONE2PTHP,COIL:COOLING:DX:SINGLESPEED,ZONE2PTHPDXCOOLCOIL,ZONE2PTHP MIXED AIR NODE,ZONE2PTHP COOLING COIL OUTLET NODE,Air Nodes
 Component Set,32,ZONEHVAC:PACKAGEDTERMINALHEATPUMP,ZONE3PTHP,COIL:COOLING:DX:SINGLESPEED,ZONE3PTHPDXCOOLCOIL,ZONE3PTHP MIXED AIR NODE,ZONE3PTHP COOLING COIL OUTLET NODE,Air Nodes
 Component Set,33,ZONEHVAC:PACKAGEDTERMINALHEATPUMP,ZONE4PTHP,COIL:COOLING:DX:SINGLESPEED,ZONE4PTHPDXCOOLCOIL,ZONE4PTHP MIXED AIR NODE,ZONE4PTHP COOLING COIL OUTLET NODE,Air Nodes
 Component Set,34,ZONEHVAC:PACKAGEDTERMINALHEATPUMP,ZONE5PTHP,COIL:COOLING:DX:SINGLESPEED,ZONE5PTHPDXCOOLCOIL,ZONE5PTHP MIXED AIR NODE,ZONE5PTHP COOLING COIL OUTLET NODE,Air Nodes
 Component Set,35,ZONEHVAC:PACKAGEDTERMINALHEATPUMP,ZONE1PTHP,COIL:HEATING:DX:SINGLESPEED,ZONE1PTHPDXHEATCOIL,ZONE1PTHP COOLING COIL OUTLET NODE,ZONE1PTHP HEATING COIL OUTLET NODE,Air Nodes
 Component Set,36,ZONEHVAC:PACKAGEDTERMINALHEATPUMP,ZONE2PTHP,COIL:HEATING:DX:SINGLESPEED,ZONE2PTHPDXHEATCOIL,ZONE2PTHP COOLING COIL OUTLET NODE,ZONE2PTHP HEATING COIL OUTLET NODE,Air Nodes
 Component Set,37,ZONEHVAC:PACKAGEDTERMINALHEATPUMP,ZONE3PTHP,COIL:HEATING:DX:SINGLESPEED,ZONE3PTHPDXHEATCOIL,ZONE3PTHP COOLING COIL OUTLET NODE,ZONE3PTHP HEATING COIL OUTLET NODE,Air Nodes
 Component Set,38,ZONEHVAC:PACKAGEDTERMINALHEATPUMP,ZONE4PTHP,COIL:HEATING:DX:SINGLESPEED,ZONE4PTHPDXHEATCOIL,ZONE4PTHP COOLING COIL OUTLET NODE,ZONE4PTHP HEATING COIL OUTLET NODE,Air Nodes
 Component Set,39,ZONEHVAC:PACKAGEDTERMINALHEATPUMP,ZONE5PTHP,COIL:HEATING:DX:SINGLESPEED,ZONE5PTHPDXHEATCOIL,ZONE5PTHP COOLING COIL OUTLET NODE,ZONE5PTHP HEATING COIL OUTLET NODE,Air Nodes
 Component Set,40,ZONEHVAC:TERMINALUNIT:VARIABLEREFRIGERANTFLOW,VRF ZONE TERMINAL,COIL:COOLING:DX:VARIABLEREFRIGERANTFLOW,VRF ZONE TERMINAL COOLING COIL,VRF ZONE TERMINAL MIXER OUTLET NODE,VRF ZONE TERMINAL COOLING COIL OUTLET NODE,Air Nodes
 Component Set,41,ZONEHVAC:TERMINALUNIT:VARIABLEREFRIGERANTFLOW,VRF ZONE TERMINAL 1,COIL:COOLING:DX:VARIABLEREFRIGERANTFLOW,VRF ZONE TERMINAL COOLING COIL 1,VRF ZONE TERMINAL 1 MIXER OUTLET NODE,VRF ZONE TERMINAL 1 COOLING COIL OUTLET NODE,Air Nodes
 Component Set,42,ZONEHVAC:TERMINALUNIT:VARIABLEREFRIGERANTFLOW,VRF ZONE TERMINAL 2,COIL:COOLING:DX:VARIABLEREFRIGERANTFLOW,VRF ZONE TERMINAL COOLING COIL 2,VRF ZONE TERMINAL 2 MIXER OUTLET NODE,VRF ZONE TERMINAL 2 COOLING COIL OUTLET NODE,Air Nodes
 Component Set,43,ZONEHVAC:TERMINALUNIT:VARIABLEREFRIGERANTFLOW,VRF ZONE TERMINAL 3,COIL:COOLING:DX:VARIABLEREFRIGERANTFLOW,VRF ZONE TERMINAL COOLING COIL 3,VRF ZONE TERMINAL 3 MIXER OUTLET NODE,VRF ZONE TERMINAL 3 COOLING COIL OUTLET NODE,Air Nodes
 Component Set,44,ZONEHVAC:TERMINALUNIT:VARIABLEREFRIGERANTFLOW,VRF ZONE TERMINAL 4,COIL:COOLING:DX:VARIABLEREFRIGERANTFLOW,VRF ZONE TERMINAL COOLING COIL 4,VRF ZONE TERMINAL 4 MIXER OUTLET NODE,VRF ZONE TERMINAL 4 COOLING COIL OUTLET NODE,Air Nodes
 Component Set,45,ZONEHVAC:TERMINALUNIT:VARIABLEREFRIGERANTFLOW,VRF ZONE TERMINAL,COIL:HEATING:DX:VARIABLEREFRIGERANTFLOW,VRF ZONE TERMINAL HEATING COIL,VRF ZONE TERMINAL COOLING COIL OUTLET NODE,VRF ZONE TERMINAL HEATING COIL OUTLET NODE,Air Nodes
 Component Set,46,ZONEHVAC:TERMINALUNIT:VARIABLEREFRIGERANTFLOW,VRF ZONE TERMINAL 1,COIL:HEATING:DX:VARIABLEREFRIGERANTFLOW,VRF ZONE TERMINAL HEATING COIL 1,VRF ZONE TERMINAL 1 COOLING COIL OUTLET NODE,VRF ZONE TERMINAL 1 HEATING COIL OUTLET NODE,Air Nodes
 Component Set,47,ZONEHVAC:TERMINALUNIT:VARIABLEREFRIGERANTFLOW,VRF ZONE TERMINAL 2,COIL:HEATING:DX:VARIABLEREFRIGERANTFLOW,VRF ZONE TERMINAL HEATING COIL 2,VRF ZONE TERMINAL 2 COOLING COIL OUTLET NODE,VRF ZONE TERMINAL 2 HEATING COIL OUTLET NODE,Air Nodes
 Component Set,48,ZONEHVAC:TERMINALUNIT:VARIABLEREFRIGERANTFLOW,VRF ZONE TERMINAL 3,COIL:HEATING:DX:VARIABLEREFRIGERANTFLOW,VRF ZONE TERMINAL HEATING COIL 3,VRF ZONE TERMINAL 3 COOLING COIL OUTLET NODE,VRF ZONE TERMINAL 3 HEATING COIL OUTLET NODE,Air Nodes
 Component Set,49,ZONEHVAC:TERMINALUNIT:VARIABLEREFRIGERANTFLOW,VRF ZONE TERMINAL 4,COIL:HEATING:DX:VARIABLEREFRIGERANTFLOW,VRF ZONE TERMINAL HEATING COIL 4,VRF ZONE TERMINAL 4 COOLING COIL OUTLET NODE,VRF ZONE TERMINAL 4 HEATING COIL OUTLET NODE,Air Nodes
 Component Set,50,ZONEHVAC:PACKAGEDTERMINALHEATPUMP,ZONE1PTHP,COIL:HEATING:ELECTRIC,ZONE1PTHPELECHTGBACKUPCOIL,ZONE1PTHP FAN OUTLET NODE,NODE 8,Air Nodes
 Component Set,51,ZONEHVAC:PACKAGEDTERMINALHEATPUMP,ZONE2PTHP,COIL:HEATING:ELECTRIC,ZONE2PTHPELECHTGBACKUPCOIL,ZONE2PTHP FAN OUTLET NODE,NODE 14,Air Nodes
 Component Set,52,ZONEHVAC:PACKAGEDTERMINALHEATPUMP,ZONE3PTHP,COIL:HEATING:ELECTRIC,ZONE3PTHPELECHTGBACKUPCOIL,ZONE3PTHP FAN OUTLET NODE,NODE 16,Air Nodes
 Component Set,53,ZONEHVAC:PACKAGEDTERMINALHEATPUMP,ZONE4PTHP,COIL:HEATING:ELECTRIC,ZONE4PTHPELECHTGBACKUPCOIL,ZONE4PTHP FAN OUTLET NODE,NODE 10,Air Nodes
 Component Set,54,ZONEHVAC:PACKAGEDTERMINALHEATPUMP,ZONE5PTHP,COIL:HEATING:ELECTRIC,ZONE5PTHPELECHTGBACKUPCOIL,ZONE5PTHP FAN OUTLET NODE,NODE 12,Air Nodes
! ===============================================================
! <# Plant Loops>,<Number of Plant Loops>
 #Plant Loops,1
! <Plant Loop>,<Plant Loop Name>,<Loop Type>,<Inlet Node Name>,<Outlet Node Name>,<Branch List>,<Connector List>
! <Plant Loop Connector>,<Connector Type>,<Connector Name>,<Loop Name>,<Loop Type>,<Number of Inlets/Outlets>
! <Plant Loop Connector Branches>,<Connector Node Count>,<Connector Type>,<Connector Name>,<Inlet Branch>,<Outlet Branch>,<Loop Name>,<Loop Type>
! <Plant Loop Connector Nodes>,<Connector Node Count>,<Connector Type>,<Connector Name>,<Inlet Node>,<Outlet Node>,<Loop Name>,<Loop Type>
! <Plant Loop Supply Connection>,<Plant Loop Name>,<Supply Side Outlet Node Name>,<Demand Side Inlet Node Name>
! <Plant Loop Return Connection>,<Plant Loop Name>,<Demand Side Outlet Node Name>,<Supply Side Inlet Node Name>
 Plant Loop,MAIN SERVICE WATER LOOP,Demand,NODE 55,NODE 56,MAIN SERVICE WATER LOOP DEMAND BRANCHES,MAIN SERVICE WATER LOOP DEMAND CONNECTOR LIST
   Plant Loop Connector,Splitter,MAIN SERVICE WATER LOOP DEMAND SPLITTER,MAIN SERVICE WATER LOOP,Demand,3
     Plant Loop Connector Branches,1,Splitter,MAIN SERVICE WATER LOOP DEMAND SPLITTER,MAIN SERVICE WATER LOOP DEMAND INLET BRANCH,MAIN SERVICE WATER LOOP DEMAND BRANCH 1,MAIN SERVICE WATER LOOP,Demand
     Plant Loop Connector Nodes,   1,Splitter,MAIN SERVICE WATER LOOP DEMAND SPLITTER,NODE 64,NODE 57,MAIN SERVICE WATER LOOP,Demand
     Plant Loop Connector Branches,2,Splitter,MAIN SERVICE WATER LOOP DEMAND SPLITTER,MAIN SERVICE WATER LOOP DEMAND INLET BRANCH,MAIN SERVICE WATER LOOP DEMAND BRANCH 2,MAIN SERVICE WATER LOOP,Demand
     Plant Loop Connector Nodes,   2,Splitter,MAIN SERVICE WATER LOOP DEMAND SPLITTER,NODE 64,NODE 66,MAIN SERVICE WATER LOOP,Demand
     Plant Loop Connector Branches,3,Splitter,MAIN SERVICE WATER LOOP DEMAND SPLITTER,MAIN SERVICE WATER LOOP DEMAND INLET BRANCH,MAIN SERVICE WATER LOOP DEMAND BYPASS BRANCH,MAIN SERVICE WATER LOOP,Demand
     Plant Loop Connector Nodes,   3,Splitter,MAIN SERVICE WATER LOOP DEMAND SPLITTER,NODE 64,MAIN SERVICE WATER LOOP DEMAND BYPASS PIPE INLET NODE,MAIN SERVICE WATER LOOP,Demand
   Plant Loop Connector,Mixer,MAIN SERVICE WATER LOOP DEMAND MIXER,MAIN SERVICE WATER LOOP,Demand,3
     Plant Loop Connector Branches,1,Mixer,MAIN SERVICE WATER LOOP DEMAND MIXER,MAIN SERVICE WATER LOOP DEMAND BRANCH 1,MAIN SERVICE WATER LOOP DEMAND OUTLET BRANCH,MAIN SERVICE WATER LOOP,Demand
     Plant Loop Connector Nodes,   1,Mixer,MAIN SERVICE WATER LOOP DEMAND MIXER,NODE 62,NODE 65,MAIN SERVICE WATER LOOP,Demand
     Plant Loop Connector Branches,2,Mixer,MAIN SERVICE WATER LOOP DEMAND MIXER,MAIN SERVICE WATER LOOP DEMAND BRANCH 2,MAIN SERVICE WATER LOOP DEMAND OUTLET BRANCH,MAIN SERVICE WATER LOOP,Demand
     Plant Loop Connector Nodes,   2,Mixer,MAIN SERVICE WATER LOOP DEMAND MIXER,NODE 67,NODE 65,MAIN SERVICE WATER LOOP,Demand
     Plant Loop Connector Branches,3,Mixer,MAIN SERVICE WATER LOOP DEMAND MIXER,MAIN SERVICE WATER LOOP DEMAND BYPASS BRANCH,MAIN SERVICE WATER LOOP DEMAND OUTLET BRANCH,MAIN SERVICE WATER LOOP,Demand
     Plant Loop Connector Nodes,   3,Mixer,MAIN SERVICE WATER LOOP DEMAND MIXER,MAIN SERVICE WATER LOOP DEMAND BYPASS PIPE OUTLET NODE,NODE 65,MAIN SERVICE WATER LOOP,Demand
 Plant Loop,MAIN SERVICE WATER LOOP,Supply,NODE 52,NODE 53,MAIN SERVICE WATER LOOP SUPPLY BRANCHES,MAIN SERVICE WATER LOOP SUPPLY CONNECTOR LIST
   Plant Loop Connector,Splitter,MAIN SERVICE WATER LOOP SUPPLY SPLITTER,MAIN SERVICE WATER LOOP,Supply,2
     Plant Loop Connector Branches,1,Splitter,MAIN SERVICE WATER LOOP SUPPLY SPLITTER,MAIN SERVICE WATER LOOP SUPPLY INLET BRANCH,MAIN SERVICE WATER LOOP SUPPLY BRANCH 1,MAIN SERVICE WATER LOOP,Supply
     Plant Loop Connector Nodes,   1,Splitter,MAIN SERVICE WATER LOOP SUPPLY SPLITTER,NODE 58,NODE 54,MAIN SERVICE WATER LOOP,Supply
     Plant Loop Connector Branches,2,Splitter,MAIN SERVICE WATER LOOP SUPPLY SPLITTER,MAIN SERVICE WATER LOOP SUPPLY INLET BRANCH,MAIN SERVICE WATER LOOP SUPPLY BRANCH 2,MAIN SERVICE WATER LOOP,Supply
     Plant Loop Connector Nodes,   2,Splitter,MAIN SERVICE WATER LOOP SUPPLY SPLITTER,NODE 58,NODE 60,MAIN SERVICE WATER LOOP,Supply
   Plant Loop Connector,Mixer,MAIN SERVICE WATER LOOP SUPPLY MIXER,MAIN SERVICE WATER LOOP,Supply,2
     Plant Loop Connector Branches,1,Mixer,MAIN SERVICE WATER LOOP SUPPLY MIXER,MAIN SERVICE WATER LOOP SUPPLY BRANCH 1,MAIN SERVICE WATER LOOP SUPPLY OUTLET BRANCH,MAIN SERVICE WATER LOOP,Supply
     Plant Loop Connector Nodes,   1,Mixer,MAIN SERVICE WATER LOOP SUPPLY MIXER,NODE 59,NODE 63,MAIN SERVICE WATER LOOP,Supply
     Plant Loop Connector Branches,2,Mixer,MAIN SERVICE WATER LOOP SUPPLY MIXER,MAIN SERVICE WATER LOOP SUPPLY BRANCH 2,MAIN SERVICE WATER LOOP SUPPLY OUTLET BRANCH,MAIN SERVICE WATER LOOP,Supply
     Plant Loop Connector Nodes,   2,Mixer,MAIN SERVICE WATER LOOP SUPPLY MIXER,NODE 61,NODE 63,MAIN SERVICE WATER LOOP,Supply
 Plant Loop Supply Connection,MAIN SERVICE WATER LOOP,NODE 53,NODE 55
 Plant Loop Return Connection,MAIN SERVICE WATER LOOP,NODE 56,NODE 52
! ===============================================================
! <# Condenser Loops>,<Number of Condenser Loops>
 #Condenser Loops,0
! <Condenser Loop>,<Condenser Loop Name>,<Loop Type>,<Inlet Node Name>,<Outlet Node Name>,<Branch List>,<Connector List>
! <Condenser Loop Connector>,<Connector Type>,<Connector Name>,<Loop Name>,<Loop Type>,<Number of Inlets/Outlets>
! <Condenser Loop Connector Branches>,<Connector Node Count>,<Connector Type>,<Connector Name>,<Inlet Branch>,<Outlet Branch>,<Loop Name>,<Loop Type>
! <Condenser Loop Connector Nodes>,<Connector Node Count>,<Connector Type>,<Connector Name>,<Inlet Node>,<Outlet Node>,<Loop Name>,<Loop Type>
! <Condenser Loop Supply Connection>,<Condenser Loop Name>,<Supply Side Outlet Node Name>,<Demand Side Inlet Node Name>
! <Condenser Loop Return Connection>,<Condenser Loop Name>,<Demand Side Outlet Node Name>,<Supply Side Inlet Node Name>
! ===============================================================
! <# Controlled Zones>,<Number of Controlled Zones>
 #Controlled Zones,5
! <Controlled Zone>,<Controlled Zone Name>,<Equip List Name>,<Control List Name>,<Zone Node Name>,<# Inlet Nodes>,<# Exhaust Nodes>,<# Return Nodes>
! <Controlled Zone Inlet>,<Inlet Node Count>,<Controlled Zone Name>,<Supply Air Inlet Node Name>,<SD Sys:Cooling/Heating [DD:Cooling] Inlet Node Name>,<DD Sys:Heating Inlet Node Name>
! <Controlled Zone Exhaust>,<Exhaust Node Count>,<Controlled Zone Name>,<Exhaust Air Node Name>
 Controlled Zone,CORE_ZN ZN,CORE_ZN ZN EQUIPMENT LIST,,NODE 6,2,2,1
   Controlled Zone Inlet,1,CORE_ZN ZN,NODE 8,Undefined,N/A
   Controlled Zone Inlet,2,CORE_ZN ZN,NODE 18,Undefined,N/A
   Controlled Zone Exhaust,1,CORE_ZN ZN,NODE 7
   Controlled Zone Exhaust,2,CORE_ZN ZN,NODE 17
   Controlled Zone Return,1,CORE_ZN ZN,CORE_ZN ZN RETURN AIR NODE
 Controlled Zone,PERIMETER_ZN_1 ZN,PERIMETER_ZN_1 ZN EQUIPMENT LIST,,NODE 1,2,2,1
   Controlled Zone Inlet,1,PERIMETER_ZN_1 ZN,NODE 14,Undefined,N/A
   Controlled Zone Inlet,2,PERIMETER_ZN_1 ZN,NODE 20,Undefined,N/A
   Controlled Zone Exhaust,1,PERIMETER_ZN_1 ZN,NODE 13
   Controlled Zone Exhaust,2,PERIMETER_ZN_1 ZN,NODE 19
   Controlled Zone Return,1,PERIMETER_ZN_1 ZN,PERIMETER_ZN_1 ZN RETURN AIR NODE
 Controlled Zone,PERIMETER_ZN_2 ZN,PERIMETER_ZN_2 ZN EQUIPMENT LIST,,NODE 3,2,2,1
   Controlled Zone Inlet,1,PERIMETER_ZN_2 ZN,NODE 16,Undefined,N/A
   Controlled Zone Inlet,2,PERIMETER_ZN_2 ZN,NODE 22,Undefined,N/A
   Controlled Zone Exhaust,1,PERIMETER_ZN_2 ZN,NODE 15
   Controlled Zone Exhaust,2,PERIMETER_ZN_2 ZN,NODE 21
   Controlled Zone Return,1,PERIMETER_ZN_2 ZN,PERIMETER_ZN_2 ZN RETURN AIR NODE
 Controlled Zone,PERIMETER_ZN_3 ZN,PERIMETER_ZN_3 ZN EQUIPMENT LIST,,NODE 4,2,2,1
   Controlled Zone Inlet,1,PERIMETER_ZN_3 ZN,NODE 10,Undefined,N/A
   Controlled Zone Inlet,2,PERIMETER_ZN_3 ZN,NODE 24,Undefined,N/A
   Controlled Zone Exhaust,1,PERIMETER_ZN_3 ZN,NODE 9
   Controlled Zone Exhaust,2,PERIMETER_ZN_3 ZN,NODE 23
   Controlled Zone Return,1,PERIMETER_ZN_3 ZN,PERIMETER_ZN_3 ZN RETURN AIR NODE
 Controlled Zone,PERIMETER_ZN_4 ZN,PERIMETER_ZN_4 ZN EQUIPMENT LIST,,NODE 5,2,2,1
   Controlled Zone Inlet,1,PERIMETER_ZN_4 ZN,NODE 12,Undefined,N/A
   Controlled Zone Inlet,2,PERIMETER_ZN_4 ZN,NODE 26,Undefined,N/A
   Controlled Zone Exhaust,1,PERIMETER_ZN_4 ZN,NODE 11
   Controlled Zone Exhaust,2,PERIMETER_ZN_4 ZN,NODE 25
   Controlled Zone Return,1,PERIMETER_ZN_4 ZN,PERIMETER_ZN_4 ZN RETURN AIR NODE
! ===============================================================
! <#Zone Equipment Lists>,<Number of Zone Equipment Lists>
 #Zone Equipment Lists,5
! <Zone Equipment List>,<Zone Equipment List Count>,<Zone Equipment List Name>,<Zone Name>,<Number of Components>
! <Zone Equipment Component>,<Component Count>,<Component Type>,<Component Name>,<Zone Name>,<Heating Priority>,<Cooling Priority>
 Zone Equipment List,2,CORE_ZN ZN EQUIPMENT LIST,CORE_ZN ZN,2
   Zone Equipment Component,1,ZONEHVAC:PACKAGEDTERMINALHEATPUMP,ZONE1PTHP,CORE_ZN ZN,1,1
   Zone Equipment Component,2,ZONEHVAC:TERMINALUNIT:VARIABLEREFRIGERANTFLOW,VRF ZONE TERMINAL,CORE_ZN ZN,2,2
 Zone Equipment List,3,PERIMETER_ZN_1 ZN EQUIPMENT LIST,PERIMETER_ZN_1 ZN,2
   Zone Equipment Component,1,ZONEHVAC:PACKAGEDTERMINALHEATPUMP,ZONE2PTHP,PERIMETER_ZN_1 ZN,1,1
   Zone Equipment Component,2,ZONEHVAC:TERMINALUNIT:VARIABLEREFRIGERANTFLOW,VRF ZONE TERMINAL 1,PERIMETER_ZN_1 ZN,2,2
 Zone Equipment List,4,PERIMETER_ZN_2 ZN EQUIPMENT LIST,PERIMETER_ZN_2 ZN,2
   Zone Equipment Component,1,ZONEHVAC:PACKAGEDTERMINALHEATPUMP,ZONE3PTHP,PERIMETER_ZN_2 ZN,1,1
   Zone Equipment Component,2,ZONEHVAC:TERMINALUNIT:VARIABLEREFRIGERANTFLOW,VRF ZONE TERMINAL 2,PERIMETER_ZN_2 ZN,2,2
 Zone Equipment List,5,PERIMETER_ZN_3 ZN EQUIPMENT LIST,PERIMETER_ZN_3 ZN,2
   Zone Equipment Component,1,ZONEHVAC:PACKAGEDTERMINALHEATPUMP,ZONE4PTHP,PERIMETER_ZN_3 ZN,1,1
   Zone Equipment Component,2,ZONEHVAC:TERMINALUNIT:VARIABLEREFRIGERANTFLOW,VRF ZONE TERMINAL 3,PERIMETER_ZN_3 ZN,2,2
 Zone Equipment List,6,PERIMETER_ZN_4 ZN EQUIPMENT LIST,PERIMETER_ZN_4 ZN,2
   Zone Equipment Component,1,ZONEHVAC:PACKAGEDTERMINALHEATPUMP,ZONE5PTHP,PERIMETER_ZN_4 ZN,1,1
   Zone Equipment Component,2,ZONEHVAC:TERMINALUNIT:VARIABLEREFRIGERANTFLOW,VRF ZONE TERMINAL 4,PERIMETER_ZN_4 ZN,2,2
! ===============================================================
! <#AirLoopHVACs>,<Number of AirLoopHVACs>
 #AirLoopHVACs,0
! <AirLoopHVAC>,<Air Loop Name>,<# Return Nodes>,<# Supply Nodes>,<# Zones Cooled>,<# Zones Heated>,<Outdoor Air Used>
! <AirLoop Return Connections>,<Connection Count>,<AirLoopHVAC Name>,<Zn Eqp Return Node #>,<Zn Eqp Return Node Name>,<AirLoop Return Node #>,<Air Loop Return Node Name>
! <AirLoop Supply Connections>,<Connection Count>,<AirLoopHVAC Name>,<Zn Eqp Supply Node #>,<Zn Eqp Supply Node Name>,<AirLoop Supply Node #>,<Air Loop Supply Node Name>
! <Cooled Zone Info>,<Cooled Zone Count>,<Cooled Zone Name>,<Cooled Zone Inlet Node #>,<Cooled Zone Inlet Node Name>,<AirLoopHVAC Name>
! <Heated Zone Info>,<Heated Zone Count>,<Heated Zone Name>,<Heated Zone Inlet Node #>,<Heated Zone Inlet Node Name>,<AirLoopHVAC Name>
! <Outdoor Air Connections>,<OA Inlet Node #>,<OA Return Air Inlet Node Name>,<OA Outlet Node #>,<OA Mixed Air Outlet Node Name>,<AirLoopHVAC Name>
! <AirLoopHVAC Connector>,<Connector Type>,<Connector Name>,<Loop Name>,<Loop Type>,<Number of Inlets/Outlets>
! <AirLoopHVAC Connector Branches>,<Connector Node Count>,<Connector Type>,<Connector Name>,<Inlet Branch>,<Outlet Branch>,<Loop Name>,<Loop Type>
! <AirLoopHVAC Connector Nodes>,<Connector Node Count>,<Connector Type>,<Connector Name>,<Inlet Node>,<Outlet Node>,<Loop Name>,<Loop Type>
! ===============================================================
! <#Parent Node Connections>,<Number of Parent Node Connections>
 #Parent Node Connections,43
! <Parent Node Connection>,<Node Name>,<Node ObjectType>,<Node ObjectName>,<Node ConnectionType>,<Node FluidStream>
 Parent Node Connection,NODE 52,BRANCH,MAIN SERVICE WATER LOOP SUPPLY INLET BRANCH,Inlet,1
 Parent Node Connection,NODE 58,BRANCH,MAIN SERVICE WATER LOOP SUPPLY INLET BRANCH,Outlet,1
 Parent Node Connection,NODE 54,BRANCH,MAIN SERVICE WATER LOOP SUPPLY BRANCH 1,Inlet,1
 Parent Node Connection,NODE 59,BRANCH,MAIN SERVICE WATER LOOP SUPPLY BRANCH 1,Outlet,1
 Parent Node Connection,NODE 60,BRANCH,MAIN SERVICE WATER LOOP SUPPLY BRANCH 2,Inlet,1
 Parent Node Connection,NODE 61,BRANCH,MAIN SERVICE WATER LOOP SUPPLY BRANCH 2,Outlet,1
 Parent Node Connection,NODE 63,BRANCH,MAIN SERVICE WATER LOOP SUPPLY OUTLET BRANCH,Inlet,1
 Parent Node Connection,NODE 53,BRANCH,MAIN SERVICE WATER LOOP SUPPLY OUTLET BRANCH,Outlet,1
 Parent Node Connection,NODE 55,BRANCH,MAIN SERVICE WATER LOOP DEMAND INLET BRANCH,Inlet,1
 Parent Node Connection,NODE 64,BRANCH,MAIN SERVICE WATER LOOP DEMAND INLET BRANCH,Outlet,1
 Parent Node Connection,NODE 57,BRANCH,MAIN SERVICE WATER LOOP DEMAND BRANCH 1,Inlet,1
 Parent Node Connection,NODE 62,BRANCH,MAIN SERVICE WATER LOOP DEMAND BRANCH 1,Outlet,1
 Parent Node Connection,NODE 66,BRANCH,MAIN SERVICE WATER LOOP DEMAND BRANCH 2,Inlet,1
 Parent Node Connection,NODE 67,BRANCH,MAIN SERVICE WATER LOOP DEMAND BRANCH 2,Outlet,1
 Parent Node Connection,MAIN SERVICE WATER LOOP DEMAND BYPASS PIPE INLET NODE,BRANCH,MAIN SERVICE WATER LOOP DEMAND BYPASS BRANCH,Inlet,1
 Parent Node Connection,MAIN SERVICE WATER LOOP DEMAND BYPASS PIPE OUTLET NODE,BRANCH,MAIN SERVICE WATER LOOP DEMAND BYPASS BRANCH,Outlet,1
 Parent Node Connection,NODE 65,BRANCH,MAIN SERVICE WATER LOOP DEMAND OUTLET BRANCH,Inlet,1
 Parent Node Connection,NODE 56,BRANCH,MAIN SERVICE WATER LOOP DEMAND OUTLET BRANCH,Outlet,1
 Parent Node Connection,NODE 52,PLANTLOOP,MAIN SERVICE WATER LOOP,Inlet,1
 Parent Node Connection,NODE 53,PLANTLOOP,MAIN SERVICE WATER LOOP,Outlet,1
 Parent Node Connection,NODE 55,PLANTLOOP,MAIN SERVICE WATER LOOP,Inlet,1
 Parent Node Connection,NODE 56,PLANTLOOP,MAIN SERVICE WATER LOOP,Outlet,1
 Parent Node Connection,NODE 53,PLANTLOOP,MAIN SERVICE WATER LOOP,Sensor,1
 Parent Node Connection,NODE 7,ZONEHVAC:PACKAGEDTERMINALHEATPUMP,ZONE1PTHP,Inlet,1
 Parent Node Connection,NODE 8,ZONEHVAC:PACKAGEDTERMINALHEATPUMP,ZONE1PTHP,Outlet,1
 Parent Node Connection,NODE 13,ZONEHVAC:PACKAGEDTERMINALHEATPUMP,ZONE2PTHP,Inlet,1
 Parent Node Connection,NODE 14,ZONEHVAC:PACKAGEDTERMINALHEATPUMP,ZONE2PTHP,Outlet,1
 Parent Node Connection,NODE 15,ZONEHVAC:PACKAGEDTERMINALHEATPUMP,ZONE3PTHP,Inlet,1
 Parent Node Connection,NODE 16,ZONEHVAC:PACKAGEDTERMINALHEATPUMP,ZONE3PTHP,Outlet,1
 Parent Node Connection,NODE 9,ZONEHVAC:PACKAGEDTERMINALHEATPUMP,ZONE4PTHP,Inlet,1
 Parent Node Connection,NODE 10,ZONEHVAC:PACKAGEDTERMINALHEATPUMP,ZONE4PTHP,Outlet,1
 Parent Node Connection,NODE 11,ZONEHVAC:PACKAGEDTERMINALHEATPUMP,ZONE5PTHP,Inlet,1
 Parent Node Connection,NODE 12,ZONEHVAC:PACKAGEDTERMINALHEATPUMP,ZONE5PTHP,Outlet,1
 Parent Node Connection,NODE 17,ZONEHVAC:TERMINALUNIT:VARIABLEREFRIGERANTFLOW,VRF ZONE TERMINAL,Inlet,1
 Parent Node Connection,NODE 18,ZONEHVAC:TERMINALUNIT:VARIABLEREFRIGERANTFLOW,VRF ZONE TERMINAL,Outlet,1
 Parent Node Connection,NODE 19,ZONEHVAC:TERMINALUNIT:VARIABLEREFRIGERANTFLOW,VRF ZONE TERMINAL 1,Inlet,1
 Parent Node Connection,NODE 20,ZONEHVAC:TERMINALUNIT:VARIABLEREFRIGERANTFLOW,VRF ZONE TERMINAL 1,Outlet,1
 Parent Node Connection,NODE 21,ZONEHVAC:TERMINALUNIT:VARIABLEREFRIGERANTFLOW,VRF ZONE TERMINAL 2,Inlet,1
 Parent Node Connection,NODE 22,ZONEHVAC:TERMINALUNIT:VARIABLEREFRIGERANTFLOW,VRF ZONE TERMINAL 2,Outlet,1
 Parent Node Connection,NODE 23,ZONEHVAC:TERMINALUNIT:VARIABLEREFRIGERANTFLOW,VRF ZONE TERMINAL 3,Inlet,1
 Parent Node Connection,NODE 24,ZONEHVAC:TERMINALUNIT:VARIABLEREFRIGERANTFLOW,VRF ZONE TERMINAL 3,Outlet,1
 Parent Node Connection,NODE 25,ZONEHVAC:TERMINALUNIT:VARIABLEREFRIGERANTFLOW,VRF ZONE TERMINAL 4,Inlet,1
 Parent Node Connection,NODE 26,ZONEHVAC:TERMINALUNIT:VARIABLEREFRIGERANTFLOW,VRF ZONE TERMINAL 4,Outlet,1
! ===============================================================
! <#Non-Parent Node Connections>,<Number of Non-Parent Node Connections>
 #Non-Parent Node Connections,184
! <Non-Parent Node Connection>,<Node Name>,<Node ObjectType>,<Node ObjectName>,<Node ConnectionType>,<Node FluidStream>
 Non-Parent Node Connection,NODE 6,ZONEHVAC:EQUIPMENTCONNECTIONS,CORE_ZN ZN,ZoneNode,1
 Non-Parent Node Connection,NODE 8,ZONEHVAC:EQUIPMENTCONNECTIONS,CORE_ZN ZN,ZoneInlet,1
 Non-Parent Node Connection,NODE 18,ZONEHVAC:EQUIPMENTCONNECTIONS,CORE_ZN ZN,ZoneInlet,1
 Non-Parent Node Connection,NODE 7,ZONEHVAC:EQUIPMENTCONNECTIONS,CORE_ZN ZN,ZoneExhaust,1
 Non-Parent Node Connection,NODE 17,ZONEHVAC:EQUIPMENTCONNECTIONS,CORE_ZN ZN,ZoneExhaust,1
 Non-Parent Node Connection,CORE_ZN ZN RETURN AIR NODE,ZONEHVAC:EQUIPMENTCONNECTIONS,CORE_ZN ZN,ZoneReturn,1
 Non-Parent Node Connection,NODE 1,ZONEHVAC:EQUIPMENTCONNECTIONS,PERIMETER_ZN_1 ZN,ZoneNode,1
 Non-Parent Node Connection,NODE 14,ZONEHVAC:EQUIPMENTCONNECTIONS,PERIMETER_ZN_1 ZN,ZoneInlet,1
 Non-Parent Node Connection,NODE 20,ZONEHVAC:EQUIPMENTCONNECTIONS,PERIMETER_ZN_1 ZN,ZoneInlet,1
 Non-Parent Node Connection,NODE 13,ZONEHVAC:EQUIPMENTCONNECTIONS,PERIMETER_ZN_1 ZN,ZoneExhaust,1
 Non-Parent Node Connection,NODE 19,ZONEHVAC:EQUIPMENTCONNECTIONS,PERIMETER_ZN_1 ZN,ZoneExhaust,1
 Non-Parent Node Connection,PERIMETER_ZN_1 ZN RETURN AIR NODE,ZONEHVAC:EQUIPMENTCONNECTIONS,PERIMETER_ZN_1 ZN,ZoneReturn,1
 Non-Parent Node Connection,NODE 3,ZONEHVAC:EQUIPMENTCONNECTIONS,PERIMETER_ZN_2 ZN,ZoneNode,1
 Non-Parent Node Connection,NODE 16,ZONEHVAC:EQUIPMENTCONNECTIONS,PERIMETER_ZN_2 ZN,ZoneInlet,1
 Non-Parent Node Connection,NODE 22,ZONEHVAC:EQUIPMENTCONNECTIONS,PERIMETER_ZN_2 ZN,ZoneInlet,1
 Non-Parent Node Connection,NODE 15,ZONEHVAC:EQUIPMENTCONNECTIONS,PERIMETER_ZN_2 ZN,ZoneExhaust,1
 Non-Parent Node Connection,NODE 21,ZONEHVAC:EQUIPMENTCONNECTIONS,PERIMETER_ZN_2 ZN,ZoneExhaust,1
 Non-Parent Node Connection,PERIMETER_ZN_2 ZN RETURN AIR NODE,ZONEHVAC:EQUIPMENTCONNECTIONS,PERIMETER_ZN_2 ZN,ZoneReturn,1
 Non-Parent Node Connection,NODE 4,ZONEHVAC:EQUIPMENTCONNECTIONS,PERIMETER_ZN_3 ZN,ZoneNode,1
 Non-Parent Node Connection,NODE 10,ZONEHVAC:EQUIPMENTCONNECTIONS,PERIMETER_ZN_3 ZN,ZoneInlet,1
 Non-Parent Node Connection,NODE 24,ZONEHVAC:EQUIPMENTCONNECTIONS,PERIMETER_ZN_3 ZN,ZoneInlet,1
 Non-Parent Node Connection,NODE 9,ZONEHVAC:EQUIPMENTCONNECTIONS,PERIMETER_ZN_3 ZN,ZoneExhaust,1
 Non-Parent Node Connection,NODE 23,ZONEHVAC:EQUIPMENTCONNECTIONS,PERIMETER_ZN_3 ZN,ZoneExhaust,1
 Non-Parent Node Connection,PERIMETER_ZN_3 ZN RETURN AIR NODE,ZONEHVAC:EQUIPMENTCONNECTIONS,PERIMETER_ZN_3 ZN,ZoneReturn,1
 Non-Parent Node Connection,NODE 5,ZONEHVAC:EQUIPMENTCONNECTIONS,PERIMETER_ZN_4 ZN,ZoneNode,1
 Non-Parent Node Connection,NODE 12,ZONEHVAC:EQUIPMENTCONNECTIONS,PERIMETER_ZN_4 ZN,ZoneInlet,1
 Non-Parent Node Connection,NODE 26,ZONEHVAC:EQUIPMENTCONNECTIONS,PERIMETER_ZN_4 ZN,ZoneInlet,1
 Non-Parent Node Connection,NODE 11,ZONEHVAC:EQUIPMENTCONNECTIONS,PERIMETER_ZN_4 ZN,ZoneExhaust,1
 Non-Parent Node Connection,NODE 25,ZONEHVAC:EQUIPMENTCONNECTIONS,PERIMETER_ZN_4 ZN,ZoneExhaust,1
 Non-Parent Node Connection,PERIMETER_ZN_4 ZN RETURN AIR NODE,ZONEHVAC:EQUIPMENTCONNECTIONS,PERIMETER_ZN_4 ZN,ZoneReturn,1
 Non-Parent Node Connection,NODE 54,WATERHEATER:MIXED,40.0GAL ELECTRICITY WATER HEATER - 40KBTU/HR 1.0 THERM EFF,Inlet,1
 Non-Parent Node Connection,NODE 59,WATERHEATER:MIXED,40.0GAL ELECTRICITY WATER HEATER - 40KBTU/HR 1.0 THERM EFF,Outlet,1
 Non-Parent Node Connection,ZONE1PTHP OA NODE,OUTDOORAIR:NODELIST,OutdoorAir:NodeList,OutdoorAir,1
 Non-Parent Node Connection,VRF ZONE TERMINAL OUTDOOR AIR NODE,OUTDOORAIR:NODELIST,OutdoorAir:NodeList,OutdoorAir,2
 Non-Parent Node Connection,ZONE2PTHP OA NODE,OUTDOORAIR:NODELIST,OutdoorAir:NodeList,OutdoorAir,3
 Non-Parent Node Connection,VRF ZONE TERMINAL 1 OUTDOOR AIR NODE,OUTDOORAIR:NODELIST,OutdoorAir:NodeList,OutdoorAir,4
 Non-Parent Node Connection,ZONE3PTHP OA NODE,OUTDOORAIR:NODELIST,OutdoorAir:NodeList,OutdoorAir,5
 Non-Parent Node Connection,VRF ZONE TERMINAL 2 OUTDOOR AIR NODE,OUTDOORAIR:NODELIST,OutdoorAir:NodeList,OutdoorAir,6
 Non-Parent Node Connection,ZONE4PTHP OA NODE,OUTDOORAIR:NODELIST,OutdoorAir:NodeList,OutdoorAir,7
 Non-Parent Node Connection,VRF ZONE TERMINAL 3 OUTDOOR AIR NODE,OUTDOORAIR:NODELIST,OutdoorAir:NodeList,OutdoorAir,8
 Non-Parent Node Connection,ZONE5PTHP OA NODE,OUTDOORAIR:NODELIST,OutdoorAir:NodeList,OutdoorAir,9
 Non-Parent Node Connection,VRF ZONE TERMINAL 4 OUTDOOR AIR NODE,OUTDOORAIR:NODELIST,OutdoorAir:NodeList,OutdoorAir,10
 Non-Parent Node Connection,MODEL OUTDOOR AIR NODE,OUTDOORAIR:NODE,OutdoorAir:Node,OutdoorAir,11
 Non-Parent Node Connection,NODE 53,SETPOINTMANAGER:SCHEDULED,SERVICE HOT WATER SETPOINT MANAGER,Setpoint,1
 Non-Parent Node Connection,NODE 60,PIPE:ADIABATIC,PIPE ADIABATIC 1,Inlet,1
 Non-Parent Node Connection,NODE 61,PIPE:ADIABATIC,PIPE ADIABATIC 1,Outlet,1
 Non-Parent Node Connection,NODE 63,PIPE:ADIABATIC,PIPE ADIABATIC 3,Inlet,1
 Non-Parent Node Connection,NODE 53,PIPE:ADIABATIC,PIPE ADIABATIC 3,Outlet,1
 Non-Parent Node Connection,NODE 55,PIPE:ADIABATIC,PIPE ADIABATIC 4,Inlet,1
 Non-Parent Node Connection,NODE 64,PIPE:ADIABATIC,PIPE ADIABATIC 4,Outlet,1
 Non-Parent Node Connection,NODE 57,PIPE:ADIABATIC,PIPE ADIABATIC 2,Inlet,1
 Non-Parent Node Connection,NODE 62,PIPE:ADIABATIC,PIPE ADIABATIC 2,Outlet,1
 Non-Parent Node Connection,MAIN SERVICE WATER LOOP DEMAND BYPASS PIPE INLET NODE,PIPE:ADIABATIC,MAIN SERVICE WATER LOOP DEMAND BYPASS PIPE,Inlet,1
 Non-Parent Node Connection,MAIN SERVICE WATER LOOP DEMAND BYPASS PIPE OUTLET NODE,PIPE:ADIABATIC,MAIN SERVICE WATER LOOP DEMAND BYPASS PIPE,Outlet,1
 Non-Parent Node Connection,NODE 65,PIPE:ADIABATIC,PIPE ADIABATIC 5,Inlet,1
 Non-Parent Node Connection,NODE 56,PIPE:ADIABATIC,PIPE ADIABATIC 5,Outlet,1
 Non-Parent Node Connection,NODE 64,CONNECTOR:SPLITTER,MAIN SERVICE WATER LOOP DEMAND SPLITTER,Inlet,1
 Non-Parent Node Connection,NODE 57,CONNECTOR:SPLITTER,MAIN SERVICE WATER LOOP DEMAND SPLITTER,Outlet,1
 Non-Parent Node Connection,NODE 66,CONNECTOR:SPLITTER,MAIN SERVICE WATER LOOP DEMAND SPLITTER,Outlet,1
 Non-Parent Node Connection,MAIN SERVICE WATER LOOP DEMAND BYPASS PIPE INLET NODE,CONNECTOR:SPLITTER,MAIN SERVICE WATER LOOP DEMAND SPLITTER,Outlet,1
 Non-Parent Node Connection,NODE 65,CONNECTOR:MIXER,MAIN SERVICE WATER LOOP DEMAND MIXER,Outlet,1
 Non-Parent Node Connection,NODE 62,CONNECTOR:MIXER,MAIN SERVICE WATER LOOP DEMAND MIXER,Inlet,1
 Non-Parent Node Connection,NODE 67,CONNECTOR:MIXER,MAIN SERVICE WATER LOOP DEMAND MIXER,Inlet,1
 Non-Parent Node Connection,MAIN SERVICE WATER LOOP DEMAND BYPASS PIPE OUTLET NODE,CONNECTOR:MIXER,MAIN SERVICE WATER LOOP DEMAND MIXER,Inlet,1
 Non-Parent Node Connection,NODE 58,CONNECTOR:SPLITTER,MAIN SERVICE WATER LOOP SUPPLY SPLITTER,Inlet,1
 Non-Parent Node Connection,NODE 54,CONNECTOR:SPLITTER,MAIN SERVICE WATER LOOP SUPPLY SPLITTER,Outlet,1
 Non-Parent Node Connection,NODE 60,CONNECTOR:SPLITTER,MAIN SERVICE WATER LOOP SUPPLY SPLITTER,Outlet,1
 Non-Parent Node Connection,NODE 63,CONNECTOR:MIXER,MAIN SERVICE WATER LOOP SUPPLY MIXER,Outlet,1
 Non-Parent Node Connection,NODE 59,CONNECTOR:MIXER,MAIN SERVICE WATER LOOP SUPPLY MIXER,Inlet,1
 Non-Parent Node Connection,NODE 61,CONNECTOR:MIXER,MAIN SERVICE WATER LOOP SUPPLY MIXER,Inlet,1
 Non-Parent Node Connection,NODE 66,WATERUSE:CONNECTIONS,WATER USE CONNECTIONS 1,Inlet,1
 Non-Parent Node Connection,NODE 67,WATERUSE:CONNECTIONS,WATER USE CONNECTIONS 1,Outlet,1
 Non-Parent Node Connection,ZONE1PTHP MIXED AIR NODE,OUTDOORAIR:MIXER,ZONE1PTHP OA MIXER,Outlet,1
 Non-Parent Node Connection,ZONE1PTHP OA NODE,OUTDOORAIR:MIXER,ZONE1PTHP OA MIXER,Inlet,1
 Non-Parent Node Connection,ZONE1PTHP RELIEF AIR NODE,OUTDOORAIR:MIXER,ZONE1PTHP OA MIXER,ReliefAir,1
 Non-Parent Node Connection,NODE 7,OUTDOORAIR:MIXER,ZONE1PTHP OA MIXER,Inlet,1
 Non-Parent Node Connection,VRF ZONE TERMINAL MIXER OUTLET NODE,OUTDOORAIR:MIXER,VRF ZONE TERMINAL OA MIXER,Outlet,1
 Non-Parent Node Connection,VRF ZONE TERMINAL OUTDOOR AIR NODE,OUTDOORAIR:MIXER,VRF ZONE TERMINAL OA MIXER,Inlet,1
 Non-Parent Node Connection,VRF ZONE TERMINAL RELIEF NODE NAME,OUTDOORAIR:MIXER,VRF ZONE TERMINAL OA MIXER,ReliefAir,1
 Non-Parent Node Connection,NODE 17,OUTDOORAIR:MIXER,VRF ZONE TERMINAL OA MIXER,Inlet,1
 Non-Parent Node Connection,ZONE2PTHP MIXED AIR NODE,OUTDOORAIR:MIXER,ZONE2PTHP OA MIXER,Outlet,1
 Non-Parent Node Connection,ZONE2PTHP OA NODE,OUTDOORAIR:MIXER,ZONE2PTHP OA MIXER,Inlet,1
 Non-Parent Node Connection,ZONE2PTHP RELIEF AIR NODE,OUTDOORAIR:MIXER,ZONE2PTHP OA MIXER,ReliefAir,1
 Non-Parent Node Connection,NODE 13,OUTDOORAIR:MIXER,ZONE2PTHP OA MIXER,Inlet,1
 Non-Parent Node Connection,VRF ZONE TERMINAL 1 MIXER OUTLET NODE,OUTDOORAIR:MIXER,VRF ZONE TERMINAL 1 OA MIXER,Outlet,1
 Non-Parent Node Connection,VRF ZONE TERMINAL 1 OUTDOOR AIR NODE,OUTDOORAIR:MIXER,VRF ZONE TERMINAL 1 OA MIXER,Inlet,1
 Non-Parent Node Connection,VRF ZONE TERMINAL 1 RELIEF NODE NAME,OUTDOORAIR:MIXER,VRF ZONE TERMINAL 1 OA MIXER,ReliefAir,1
 Non-Parent Node Connection,NODE 19,OUTDOORAIR:MIXER,VRF ZONE TERMINAL 1 OA MIXER,Inlet,1
 Non-Parent Node Connection,ZONE3PTHP MIXED AIR NODE,OUTDOORAIR:MIXER,ZONE3PTHP OA MIXER,Outlet,1
 Non-Parent Node Connection,ZONE3PTHP OA NODE,OUTDOORAIR:MIXER,ZONE3PTHP OA MIXER,Inlet,1
 Non-Parent Node Connection,ZONE3PTHP RELIEF AIR NODE,OUTDOORAIR:MIXER,ZONE3PTHP OA MIXER,ReliefAir,1
 Non-Parent Node Connection,NODE 15,OUTDOORAIR:MIXER,ZONE3PTHP OA MIXER,Inlet,1
 Non-Parent Node Connection,VRF ZONE TERMINAL 2 MIXER OUTLET NODE,OUTDOORAIR:MIXER,VRF ZONE TERMINAL 2 OA MIXER,Outlet,1
 Non-Parent Node Connection,VRF ZONE TERMINAL 2 OUTDOOR AIR NODE,OUTDOORAIR:MIXER,VRF ZONE TERMINAL 2 OA MIXER,Inlet,1
 Non-Parent Node Connection,VRF ZONE TERMINAL 2 RELIEF NODE NAME,OUTDOORAIR:MIXER,VRF ZONE TERMINAL 2 OA MIXER,ReliefAir,1
 Non-Parent Node Connection,NODE 21,OUTDOORAIR:MIXER,VRF ZONE TERMINAL 2 OA MIXER,Inlet,1
 Non-Parent Node Connection,ZONE4PTHP MIXED AIR NODE,OUTDOORAIR:MIXER,ZONE4PTHP OA MIXER,Outlet,1
 Non-Parent Node Connection,ZONE4PTHP OA NODE,OUTDOORAIR:MIXER,ZONE4PTHP OA MIXER,Inlet,1
 Non-Parent Node Connection,ZONE4PTHP RELIEF AIR NODE,OUTDOORAIR:MIXER,ZONE4PTHP OA MIXER,ReliefAir,1
 Non-Parent Node Connection,NODE 9,OUTDOORAIR:MIXER,ZONE4PTHP OA MIXER,Inlet,1
 Non-Parent Node Connection,VRF ZONE TERMINAL 3 MIXER OUTLET NODE,OUTDOORAIR:MIXER,VRF ZONE TERMINAL 3 OA MIXER,Outlet,1
 Non-Parent Node Connection,VRF ZONE TERMINAL 3 OUTDOOR AIR NODE,OUTDOORAIR:MIXER,VRF ZONE TERMINAL 3 OA MIXER,Inlet,1
 Non-Parent Node Connection,VRF ZONE TERMINAL 3 RELIEF NODE NAME,OUTDOORAIR:MIXER,VRF ZONE TERMINAL 3 OA MIXER,ReliefAir,1
 Non-Parent Node Connection,NODE 23,OUTDOORAIR:MIXER,VRF ZONE TERMINAL 3 OA MIXER,Inlet,1
 Non-Parent Node Connection,ZONE5PTHP MIXED AIR NODE,OUTDOORAIR:MIXER,ZONE5PTHP OA MIXER,Outlet,1
 Non-Parent Node Connection,ZONE5PTHP OA NODE,OUTDOORAIR:MIXER,ZONE5PTHP OA MIXER,Inlet,1
 Non-Parent Node Connection,ZONE5PTHP RELIEF AIR NODE,OUTDOORAIR:MIXER,ZONE5PTHP OA MIXER,ReliefAir,1
 Non-Parent Node Connection,NODE 11,OUTDOORAIR:MIXER,ZONE5PTHP OA MIXER,Inlet,1
 Non-Parent Node Connection,VRF ZONE TERMINAL 4 MIXER OUTLET NODE,OUTDOORAIR:MIXER,VRF ZONE TERMINAL 4 OA MIXER,Outlet,1
 Non-Parent Node Connection,VRF ZONE TERMINAL 4 OUTDOOR AIR NODE,OUTDOORAIR:MIXER,VRF ZONE TERMINAL 4 OA MIXER,Inlet,1
 Non-Parent Node Connection,VRF ZONE TERMINAL 4 RELIEF NODE NAME,OUTDOORAIR:MIXER,VRF ZONE TERMINAL 4 OA MIXER,ReliefAir,1
 Non-Parent Node Connection,NODE 25,OUTDOORAIR:MIXER,VRF ZONE TERMINAL 4 OA MIXER,Inlet,1
 Non-Parent Node Connection,ZONE1PTHP HEATING COIL OUTLET NODE,FAN:CONSTANTVOLUME,ZONE1PTHPFAN,Inlet,1
 Non-Parent Node Connection,ZONE1PTHP FAN OUTLET NODE,FAN:CONSTANTVOLUME,ZONE1PTHPFAN,Outlet,1
 Non-Parent Node Connection,ZONE2PTHP HEATING COIL OUTLET NODE,FAN:CONSTANTVOLUME,ZONE1PTHPFAN 3,Inlet,1
 Non-Parent Node Connection,ZONE2PTHP FAN OUTLET NODE,FAN:CONSTANTVOLUME,ZONE1PTHPFAN 3,Outlet,1
 Non-Parent Node Connection,ZONE3PTHP HEATING COIL OUTLET NODE,FAN:CONSTANTVOLUME,ZONE3PTHPFAN,Inlet,1
 Non-Parent Node Connection,ZONE3PTHP FAN OUTLET NODE,FAN:CONSTANTVOLUME,ZONE3PTHPFAN,Outlet,1
 Non-Parent Node Connection,ZONE4PTHP HEATING COIL OUTLET NODE,FAN:CONSTANTVOLUME,ZONE4PTHPFAN,Inlet,1
 Non-Parent Node Connection,ZONE4PTHP FAN OUTLET NODE,FAN:CONSTANTVOLUME,ZONE4PTHPFAN,Outlet,1
 Non-Parent Node Connection,ZONE5PTHP HEATING COIL OUTLET NODE,FAN:CONSTANTVOLUME,ZONE5PTHPFAN,Inlet,1
 Non-Parent Node Connection,ZONE5PTHP FAN OUTLET NODE,FAN:CONSTANTVOLUME,ZONE5PTHPFAN,Outlet,1
 Non-Parent Node Connection,VRF ZONE TERMINAL HEATING COIL OUTLET NODE,FAN:ONOFF,VRF ZONE TERMINAL FAN,Inlet,1
 Non-Parent Node Connection,NODE 18,FAN:ONOFF,VRF ZONE TERMINAL FAN,Outlet,1
 Non-Parent Node Connection,VRF ZONE TERMINAL 1 HEATING COIL OUTLET NODE,FAN:ONOFF,VRF ZONE TERMINAL FAN 1,Inlet,1
 Non-Parent Node Connection,NODE 20,FAN:ONOFF,VRF ZONE TERMINAL FAN 1,Outlet,1
 Non-Parent Node Connection,VRF ZONE TERMINAL 2 HEATING COIL OUTLET NODE,FAN:ONOFF,VRF ZONE TERMINAL FAN 2,Inlet,1
 Non-Parent Node Connection,NODE 22,FAN:ONOFF,VRF ZONE TERMINAL FAN 2,Outlet,1
 Non-Parent Node Connection,VRF ZONE TERMINAL 3 HEATING COIL OUTLET NODE,FAN:ONOFF,VRF ZONE TERMINAL FAN 3,Inlet,1
 Non-Parent Node Connection,NODE 24,FAN:ONOFF,VRF ZONE TERMINAL FAN 3,Outlet,1
 Non-Parent Node Connection,VRF ZONE TERMINAL 4 HEATING COIL OUTLET NODE,FAN:ONOFF,VRF ZONE TERMINAL FAN 4,Inlet,1
 Non-Parent Node Connection,NODE 26,FAN:ONOFF,VRF ZONE TERMINAL FAN 4,Outlet,1
 Non-Parent Node Connection,ZONE1PTHP MIXED AIR NODE,COIL:COOLING:DX:SINGLESPEED,ZONE1PTHPDXCOOLCOIL,Inlet,1
 Non-Parent Node Connection,ZONE1PTHP COOLING COIL OUTLET NODE,COIL:COOLING:DX:SINGLESPEED,ZONE1PTHPDXCOOLCOIL,Outlet,1
 Non-Parent Node Connection,ZONE2PTHP MIXED AIR NODE,COIL:COOLING:DX:SINGLESPEED,ZONE2PTHPDXCOOLCOIL,Inlet,1
 Non-Parent Node Connection,ZONE2PTHP COOLING COIL OUTLET NODE,COIL:COOLING:DX:SINGLESPEED,ZONE2PTHPDXCOOLCOIL,Outlet,1
 Non-Parent Node Connection,ZONE3PTHP MIXED AIR NODE,COIL:COOLING:DX:SINGLESPEED,ZONE3PTHPDXCOOLCOIL,Inlet,1
 Non-Parent Node Connection,ZONE3PTHP COOLING COIL OUTLET NODE,COIL:COOLING:DX:SINGLESPEED,ZONE3PTHPDXCOOLCOIL,Outlet,1
 Non-Parent Node Connection,ZONE4PTHP MIXED AIR NODE,COIL:COOLING:DX:SINGLESPEED,ZONE4PTHPDXCOOLCOIL,Inlet,1
 Non-Parent Node Connection,ZONE4PTHP COOLING COIL OUTLET NODE,COIL:COOLING:DX:SINGLESPEED,ZONE4PTHPDXCOOLCOIL,Outlet,1
 Non-Parent Node Connection,ZONE5PTHP MIXED AIR NODE,COIL:COOLING:DX:SINGLESPEED,ZONE5PTHPDXCOOLCOIL,Inlet,1
 Non-Parent Node Connection,ZONE5PTHP COOLING COIL OUTLET NODE,COIL:COOLING:DX:SINGLESPEED,ZONE5PTHPDXCOOLCOIL,Outlet,1
 Non-Parent Node Connection,ZONE1PTHP COOLING COIL OUTLET NODE,COIL:HEATING:DX:SINGLESPEED,ZONE1PTHPDXHEATCOIL,Inlet,1
 Non-Parent Node Connection,ZONE1PTHP HEATING COIL OUTLET NODE,COIL:HEATING:DX:SINGLESPEED,ZONE1PTHPDXHEATCOIL,Outlet,1
 Non-Parent Node Connection,ZONE2PTHP COOLING COIL OUTLET NODE,COIL:HEATING:DX:SINGLESPEED,ZONE2PTHPDXHEATCOIL,Inlet,1
 Non-Parent Node Connection,ZONE2PTHP HEATING COIL OUTLET NODE,COIL:HEATING:DX:SINGLESPEED,ZONE2PTHPDXHEATCOIL,Outlet,1
 Non-Parent Node Connection,ZONE3PTHP COOLING COIL OUTLET NODE,COIL:HEATING:DX:SINGLESPEED,ZONE3PTHPDXHEATCOIL,Inlet,1
 Non-Parent Node Connection,ZONE3PTHP HEATING COIL OUTLET NODE,COIL:HEATING:DX:SINGLESPEED,ZONE3PTHPDXHEATCOIL,Outlet,1
 Non-Parent Node Connection,ZONE4PTHP COOLING COIL OUTLET NODE,COIL:HEATING:DX:SINGLESPEED,ZONE4PTHPDXHEATCOIL,Inlet,1
 Non-Parent Node Connection,ZONE4PTHP HEATING COIL OUTLET NODE,COIL:HEATING:DX:SINGLESPEED,ZONE4PTHPDXHEATCOIL,Outlet,1
 Non-Parent Node Connection,ZONE5PTHP COOLING COIL OUTLET NODE,COIL:HEATING:DX:SINGLESPEED,ZONE5PTHPDXHEATCOIL,Inlet,1
 Non-Parent Node Connection,ZONE5PTHP HEATING COIL OUTLET NODE,COIL:HEATING:DX:SINGLESPEED,ZONE5PTHPDXHEATCOIL,Outlet,1
 Non-Parent Node Connection,VRF ZONE TERMINAL MIXER OUTLET NODE,COIL:COOLING:DX:VARIABLEREFRIGERANTFLOW,VRF ZONE TERMINAL COOLING COIL,Inlet,1
 Non-Parent Node Connection,VRF ZONE TERMINAL COOLING COIL OUTLET NODE,COIL:COOLING:DX:VARIABLEREFRIGERANTFLOW,VRF ZONE TERMINAL COOLING COIL,Outlet,1
 Non-Parent Node Connection,VRF ZONE TERMINAL 1 MIXER OUTLET NODE,COIL:COOLING:DX:VARIABLEREFRIGERANTFLOW,VRF ZONE TERMINAL COOLING COIL 1,Inlet,1
 Non-Parent Node Connection,VRF ZONE TERMINAL 1 COOLING COIL OUTLET NODE,COIL:COOLING:DX:VARIABLEREFRIGERANTFLOW,VRF ZONE TERMINAL COOLING COIL 1,Outlet,1
 Non-Parent Node Connection,VRF ZONE TERMINAL 2 MIXER OUTLET NODE,COIL:COOLING:DX:VARIABLEREFRIGERANTFLOW,VRF ZONE TERMINAL COOLING COIL 2,Inlet,1
 Non-Parent Node Connection,VRF ZONE TERMINAL 2 COOLING COIL OUTLET NODE,COIL:COOLING:DX:VARIABLEREFRIGERANTFLOW,VRF ZONE TERMINAL COOLING COIL 2,Outlet,1
 Non-Parent Node Connection,VRF ZONE TERMINAL 3 MIXER OUTLET NODE,COIL:COOLING:DX:VARIABLEREFRIGERANTFLOW,VRF ZONE TERMINAL COOLING COIL 3,Inlet,1
 Non-Parent Node Connection,VRF ZONE TERMINAL 3 COOLING COIL OUTLET NODE,COIL:COOLING:DX:VARIABLEREFRIGERANTFLOW,VRF ZONE TERMINAL COOLING COIL 3,Outlet,1
 Non-Parent Node Connection,VRF ZONE TERMINAL 4 MIXER OUTLET NODE,COIL:COOLING:DX:VARIABLEREFRIGERANTFLOW,VRF ZONE TERMINAL COOLING COIL 4,Inlet,1
 Non-Parent Node Connection,VRF ZONE TERMINAL 4 COOLING COIL OUTLET NODE,COIL:COOLING:DX:VARIABLEREFRIGERANTFLOW,VRF ZONE TERMINAL COOLING COIL 4,Outlet,1
 Non-Parent Node Connection,VRF ZONE TERMINAL COOLING COIL OUTLET NODE,COIL:HEATING:DX:VARIABLEREFRIGERANTFLOW,VRF ZONE TERMINAL HEATING COIL,Inlet,1
 Non-Parent Node Connection,VRF ZONE TERMINAL HEATING COIL OUTLET NODE,COIL:HEATING:DX:VARIABLEREFRIGERANTFLOW,VRF ZONE TERMINAL HEATING COIL,Outlet,1
 Non-Parent Node Connection,VRF ZONE TERMINAL 1 COOLING COIL OUTLET NODE,COIL:HEATING:DX:VARIABLEREFRIGERANTFLOW,VRF ZONE TERMINAL HEATING COIL 1,Inlet,1
 Non-Parent Node Connection,VRF ZONE TERMINAL 1 HEATING COIL OUTLET NODE,COIL:HEATING:DX:VARIABLEREFRIGERANTFLOW,VRF ZONE TERMINAL HEATING COIL 1,Outlet,1
 Non-Parent Node Connection,VRF ZONE TERMINAL 2 COOLING COIL OUTLET NODE,COIL:HEATING:DX:VARIABLEREFRIGERANTFLOW,VRF ZONE TERMINAL HEATING COIL 2,Inlet,1
 Non-Parent Node Connection,VRF ZONE TERMINAL 2 HEATING COIL OUTLET NODE,COIL:HEATING:DX:VARIABLEREFRIGERANTFLOW,VRF ZONE TERMINAL HEATING COIL 2,Outlet,1
 Non-Parent Node Connection,VRF ZONE TERMINAL 3 COOLING COIL OUTLET NODE,COIL:HEATING:DX:VARIABLEREFRIGERANTFLOW,VRF ZONE TERMINAL HEATING COIL 3,Inlet,1
 Non-Parent Node Connection,VRF ZONE TERMINAL 3 HEATING COIL OUTLET NODE,COIL:HEATING:DX:VARIABLEREFRIGERANTFLOW,VRF ZONE TERMINAL HEATING COIL 3,Outlet,1
 Non-Parent Node Connection,VRF ZONE TERMINAL 4 COOLING COIL OUTLET NODE,COIL:HEATING:DX:VARIABLEREFRIGERANTFLOW,VRF ZONE TERMINAL HEATING COIL 4,Inlet,1
 Non-Parent Node Connection,VRF ZONE TERMINAL 4 HEATING COIL OUTLET NODE,COIL:HEATING:DX:VARIABLEREFRIGERANTFLOW,VRF ZONE TERMINAL HEATING COIL 4,Outlet,1
 Non-Parent Node Connection,ZONE1PTHP FAN OUTLET NODE,COIL:HEATING:ELECTRIC,ZONE1PTHPELECHTGBACKUPCOIL,Inlet,1
 Non-Parent Node Connection,NODE 8,COIL:HEATING:ELECTRIC,ZONE1PTHPELECHTGBACKUPCOIL,Outlet,1
 Non-Parent Node Connection,ZONE2PTHP FAN OUTLET NODE,COIL:HEATING:ELECTRIC,ZONE2PTHPELECHTGBACKUPCOIL,Inlet,1
 Non-Parent Node Connection,NODE 14,COIL:HEATING:ELECTRIC,ZONE2PTHPELECHTGBACKUPCOIL,Outlet,1
 Non-Parent Node Connection,ZONE3PTHP FAN OUTLET NODE,COIL:HEATING:ELECTRIC,ZONE3PTHPELECHTGBACKUPCOIL,Inlet,1
 Non-Parent Node Connection,NODE 16,COIL:HEATING:ELECTRIC,ZONE3PTHPELECHTGBACKUPCOIL,Outlet,1
 Non-Parent Node Connection,ZONE4PTHP FAN OUTLET NODE,COIL:HEATING:ELECTRIC,ZONE4PTHPELECHTGBACKUPCOIL,Inlet,1
 Non-Parent Node Connection,NODE 10,COIL:HEATING:ELECTRIC,ZONE4PTHPELECHTGBACKUPCOIL,Outlet,1
 Non-Parent Node Connection,ZONE5PTHP FAN OUTLET NODE,COIL:HEATING:ELECTRIC,ZONE5PTHPELECHTGBACKUPCOIL,Inlet,1
 Non-Parent Node Connection,NODE 12,COIL:HEATING:ELECTRIC,ZONE5PTHPELECHTGBACKUPCOIL,Outlet,1
 Non-Parent Node Connection,NODE 52,PUMP:CONSTANTSPEED,SERVICE WATER LOOP PUMP,Inlet,1
 Non-Parent Node Connection,NODE 58,PUMP:CONSTANTSPEED,SERVICE WATER LOOP PUMP,Outlet,1
