Program Version,EnergyPlus, Version 8.9.0-eba93e8e1b, YMD=2018.07.10 10:47
! <Version>, Version ID
 Version, 8.9
! <Timesteps per Hour>, #TimeSteps, Minutes per TimeStep {minutes}
 Timesteps per Hour,  6, 10
! <System Convergence Limits>, Minimum System TimeStep {minutes}, Max HVAC Iterations, Minimum Plant Iterations, Maximum Plant Iterations
 System Convergence Limits, 1, 20, 2, 8
! <Simulation Control>, Do Zone Sizing, Do System Sizing, Do Plant Sizing, Do Design Days, Do Weather Simulation, Do HVAC Sizing Simulation
 Simulation Control, Yes, Yes, Yes, No, Yes, No
! <Output Reporting Tolerances>, Tolerance for Time Heating Setpoint Not Met, Tolerance for Zone Cooling Setpoint Not Met Time
 Output Reporting Tolerances, 0.200, 0.200, 
! <Site:GroundTemperature:BuildingSurface>,Jan{C},Feb{C},Mar{C},Apr{C},May{C},Jun{C},Jul{C},Aug{C},Sep{C},Oct{C},Nov{C},Dec{C}
 Site:GroundTemperature:BuildingSurface,  19.27,  19.18,  19.29,  19.59,  19.96,  22.25,  22.94,  23.08,  23.06,  20.85,  20.16,  19.63
! <Site:GroundTemperature:FCfactorMethod>,Jan{C},Feb{C},Mar{C},Apr{C},May{C},Jun{C},Jul{C},Aug{C},Sep{C},Oct{C},Nov{C},Dec{C}
 Site:GroundTemperature:FCfactorMethod,  -1.89,  -3.06,  -0.99,   2.23,  10.68,  17.20,  21.60,  22.94,  20.66,  15.60,   8.83,   2.56
! <Site:GroundTemperature:Shallow>,Jan{C},Feb{C},Mar{C},Apr{C},May{C},Jun{C},Jul{C},Aug{C},Sep{C},Oct{C},Nov{C},Dec{C}
 Site:GroundTemperature:Shallow,  13.00,  13.00,  13.00,  13.00,  13.00,  13.00,  13.00,  13.00,  13.00,  13.00,  13.00,  13.00
! <Site:GroundTemperature:Deep>,Jan{C},Feb{C},Mar{C},Apr{C},May{C},Jun{C},Jul{C},Aug{C},Sep{C},Oct{C},Nov{C},Dec{C}
 Site:GroundTemperature:Deep,  16.00,  16.00,  16.00,  16.00,  16.00,  16.00,  16.00,  16.00,  16.00,  16.00,  16.00,  16.00
! <Site:GroundReflectance>,Jan{dimensionless},Feb{dimensionless},Mar{dimensionless},Apr{dimensionless},May{dimensionless},Jun{dimensionless},Jul{dimensionless},Aug{dimensionless},Sep{dimensionless},Oct{dimensionless},Nov{dimensionless},Dec{dimensionless}
 Site:GroundReflectance,  0.20,  0.20,  0.20,  0.20,  0.20,  0.20,  0.20,  0.20,  0.20,  0.20,  0.20,  0.20
! <Site:GroundReflectance:SnowModifier>, Normal, Daylighting {dimensionless}
 Site:GroundReflectance:SnowModifier,   1.000,   1.000
! <Site:GroundReflectance:Snow>,Jan{dimensionless},Feb{dimensionless},Mar{dimensionless},Apr{dimensionless},May{dimensionless},Jun{dimensionless},Jul{dimensionless},Aug{dimensionless},Sep{dimensionless},Oct{dimensionless},Nov{dimensionless},Dec{dimensionless}
 Site:GroundReflectance:Snow,  0.20,  0.20,  0.20,  0.20,  0.20,  0.20,  0.20,  0.20,  0.20,  0.20,  0.20,  0.20
! <Site:GroundReflectance:Snow:Daylighting>,Jan{dimensionless},Feb{dimensionless},Mar{dimensionless},Apr{dimensionless},May{dimensionless},Jun{dimensionless},Jul{dimensionless},Aug{dimensionless},Sep{dimensionless},Oct{dimensionless},Nov{dimensionless},Dec{dimensionless}
 Site:GroundReflectance:Snow:Daylighting,  0.20,  0.20,  0.20,  0.20,  0.20,  0.20,  0.20,  0.20,  0.20,  0.20,  0.20,  0.20
! <Environment:Weather Station>,Wind Sensor Height Above Ground {m},Wind Speed Profile Exponent {},Wind Speed Profile Boundary Layer Thickness {m},Air Temperature Sensor Height Above Ground {m},Wind Speed Modifier Coefficient-Internal,Temperature Modifier Coefficient-Internal
Environment:Weather Station,10.000,0.140,270.000,1.500,1.586,9.750E-003
! <Site:Location>, Location Name, Latitude {N+/S- Deg}, Longitude {E+/W- Deg},  Time Zone Number {GMT+/-}, Elevation {m},  Standard Pressure at Elevation {Pa}, Standard RhoAir at Elevation
Site:Location,Chicago Ohare Intl Ap IL USA TMY3 WMO#=725300,41.98,-87.92,-6.00,201.00,98934,1.1759
! <Building Information>, Building Name,North Axis {deg},Terrain,  Loads Convergence Tolerance Value,Temperature Convergence Tolerance Value,  Solar Distribution,Maximum Number of Warmup Days,Minimum Number of Warmup Days
 Building Information,90.1-2004-SmallOffice-ASHRAE 169-2006-5A created: 2018-03-27 16:02:36 -0400,0.000,City,4.00000E-002,0.20000,FullInteriorAndExterior,25,6
! <Inside Convection Algorithm>, Algorithm {Simple | TARP | CeilingDiffuser | AdaptiveConvectionAlgorithm}
Inside Convection Algorithm,TARP
! <Outside Convection Algorithm>, Algorithm {SimpleCombined | TARP | MoWitt | DOE-2 | AdaptiveConvectionAlgorithm}
Outside Convection Algorithm,TARP
! <Sky Radiance Distribution>, Value {Anisotropic}
Sky Radiance Distribution,Anisotropic
! <Zone Air Solution Algorithm>, Value {ThirdOrderBackwardDifference | AnalyticalSolution | EulerMethod}
 Zone Air Solution Algorithm, ThirdOrderBackwardDifference
! <Zone Air Carbon Dioxide Balance Simulation>, Simulation {Yes/No}, Carbon Dioxide Concentration
 Zone Air Carbon Dioxide Balance Simulation, No,N/A
! <Zone Air Generic Contaminant Balance Simulation>, Simulation {Yes/No}, Generic Contaminant Concentration
 Zone Air Generic Contaminant Balance Simulation, No,N/A
! <Zone Air Mass Flow Balance Simulation>, Enforce Mass Balance, Adjust Zone Mixing, Adjust Zone Infiltration {AddInfiltration | AdjustInfiltration | None}, Infiltration Zones {MixingSourceZonesOnly | AllZones}
 Zone Air Mass Flow Balance Simulation, No,N/A,N/A,N/A
! <HVACSystemRootFindingAlgorithm>, Value {RegulaFalsi | Bisection | BisectionThenRegulaFalsi | RegulaFalsiThenBisection}
 HVACSystemRootFindingAlgorithm, RegulaFalsi
! <Environment:Site Atmospheric Variation>,Wind Speed Profile Exponent {},Wind Speed Profile Boundary Layer Thickness {m},Air Temperature Gradient Coefficient {K/m}
Environment:Site Atmospheric Variation,0.330,460.000,6.500000E-003
! <Surface Geometry>,Starting Corner,Vertex Input Direction,Coordinate System,Daylight Reference Point Coordinate System,Rectangular (Simple) Surface Coordinate System
 Surface Geometry,UpperLeftCorner,Counterclockwise,RelativeCoordinateSystem,RelativeCoordinateSystem,RelativeToZoneOrigin
! <Surface Heat Transfer Algorithm>, Value {CTF - ConductionTransferFunction | EMPD - MoisturePenetrationDepthConductionTransferFunction | CondFD - ConductionFiniteDifference | HAMT - CombinedHeatAndMoistureFiniteElement} - Description,Inside Surface Max Temperature Limit{C}, Surface Convection Coefficient Lower Limit {W/m2-K}, Surface Convection Coefficient Upper Limit {W/m2-K}
Surface Heat Transfer Algorithm, CTF - ConductionTransferFunction,200,0.10,1000.0
! <Shading Summary>, Number of Fixed Detached Shades, Number of Building Detached Shades, Number of Attached Shades
 Shading Summary,0,0,0
! <Zone Summary>, Number of Zones, Number of Zone Surfaces, Number of SubSurfaces
 Zone Summary,6,69,21
! <Zone Information>,Zone Name,North Axis {deg},Origin X-Coordinate {m},Origin Y-Coordinate {m},Origin Z-Coordinate {m},Centroid X-Coordinate {m},Centroid Y-Coordinate {m},Centroid Z-Coordinate {m},Type,Zone Multiplier,Zone List Multiplier,Minimum X {m},Maximum X {m},Minimum Y {m},Maximum Y {m},Minimum Z {m},Maximum Z {m},Ceiling Height {m},Volume {m3},Zone Inside Convection Algorithm {Simple-Detailed-CeilingDiffuser-TrombeWall},Zone Outside Convection Algorithm {Simple-Detailed-Tarp-MoWitt-DOE-2-BLAST}, Floor Area {m2},Exterior Gross Wall Area {m2},Exterior Net Wall Area {m2},Exterior Window Area {m2}, Number of Surfaces, Number of SubSurfaces, Number of Shading SubSurfaces,  Part of Total Building Area
 Zone Information, ATTIC ZN,0.0,0.00,0.00,0.00,13.85,9.23,3.70,1,1,1,-0.60,28.29,-0.60,19.06,3.05,6.33,1.64,720.19,TARP,TARP,567.98,0.00,0.00,0.00,13,0,0,No
 Zone Information, CORE_ZN ZN,0.0,0.00,0.00,0.00,13.85,9.23,1.53,1,1,1,5.00,22.69,5.00,13.46,0.00,3.05,3.05,456.46,TARP,TARP,149.66,0.00,0.00,0.00,6,0,0,Yes
 Zone Information, PERIMETER_ZN_1 ZN,0.0,0.00,0.00,0.00,13.85,2.21,1.53,1,1,1,0.00,27.69,0.00,5.00,0.00,3.05,3.05,346.02,TARP,TARP,113.45,84.45,63.82,16.73,6,7,0,Yes
 Zone Information, PERIMETER_ZN_2 ZN,0.0,0.00,0.00,0.00,25.64,9.23,1.53,1,1,1,22.69,27.69,0.00,18.46,0.00,3.05,3.05,205.27,TARP,TARP,67.30,56.30,45.15,11.16,6,4,0,Yes
 Zone Information, PERIMETER_ZN_3 ZN,0.0,0.00,0.00,0.00,13.85,16.25,1.53,1,1,1,0.00,27.69,13.46,18.46,0.00,3.05,3.05,346.02,TARP,TARP,113.45,84.45,67.72,16.73,6,6,0,Yes
 Zone Information, PERIMETER_ZN_4 ZN,0.0,0.00,0.00,0.00,2.05,9.23,1.53,1,1,1,0.00,5.00,0.00,18.46,0.00,3.05,3.05,205.27,TARP,TARP,67.30,56.30,45.15,11.16,6,4,0,Yes
! <Zone Internal Gains Nominal>,Zone Name, Floor Area {m2},# Occupants,Area per Occupant {m2/person},Occupant per Area {person/m2},Interior Lighting {W/m2},Electric Load {W/m2},Gas Load {W/m2},Other Load {W/m2},Hot Water Eq {W/m2},Steam Equipment {W/m2},Sum Loads per Area {W/m2},Outdoor Controlled Baseboard Heat
 Zone Internal Gains Nominal, ATTIC ZN,567.98,0.0,N/A,0.000,0.000,0.000,0.000,0.000,0.000,0.000,0.000,No
 Zone Internal Gains Nominal, CORE_ZN ZN,149.66,9.0,16.590,6.028E-002,10.764,6.781,0.000,0.000,0.000,0.000,17.545,No
 Zone Internal Gains Nominal, PERIMETER_ZN_1 ZN,113.45,6.8,16.590,6.028E-002,10.764,6.781,0.000,0.000,0.000,0.000,17.545,No
 Zone Internal Gains Nominal, PERIMETER_ZN_2 ZN,67.30,4.1,16.590,6.028E-002,10.764,6.781,0.000,0.000,0.000,0.000,17.545,No
 Zone Internal Gains Nominal, PERIMETER_ZN_3 ZN,113.45,6.8,16.590,6.028E-002,10.764,6.781,0.000,0.000,0.000,0.000,17.545,No
 Zone Internal Gains Nominal, PERIMETER_ZN_4 ZN,67.30,4.1,16.590,6.028E-002,10.764,6.781,0.000,0.000,0.000,0.000,17.545,No
! <People Internal Gains Nominal>,Name,Schedule Name,Zone Name,Zone Floor Area {m2},# Zone Occupants,Number of People {},People/Floor Area {person/m2},Floor Area per person {m2/person},Fraction Radiant,Fraction Convected,Sensible Fraction Calculation,Activity level,ASHRAE 55 Warnings,Carbon Dioxide Generation Rate,Nominal Minimum Number of People,Nominal Maximum Number of People
 People Internal Gains Nominal, CORE_ZN ZN OFFICE WHOLEBUILDING - SM OFFICE PEOPLE,OFFICESMALL BLDG_OCC_SCH,CORE_ZN ZN,149.66,9.0,9.0,6.028E-002,16.590,0.300,0.700,AutoCalculate,OFFICESMALL ACTIVITY_SCH,No,3.8200E-008,0,9
 People Internal Gains Nominal, PERIMETER_ZN_1 ZN OFFICE WHOLEBUILDING - SM OFFICE PEOPLE,OFFICESMALL BLDG_OCC_SCH,PERIMETER_ZN_1 ZN,113.45,6.8,6.8,6.028E-002,16.590,0.300,0.700,AutoCalculate,OFFICESMALL ACTIVITY_SCH,No,3.8200E-008,0,7
 People Internal Gains Nominal, PERIMETER_ZN_2 ZN OFFICE WHOLEBUILDING - SM OFFICE PEOPLE,OFFICESMALL BLDG_OCC_SCH,PERIMETER_ZN_2 ZN,67.30,4.1,4.1,6.028E-002,16.590,0.300,0.700,AutoCalculate,OFFICESMALL ACTIVITY_SCH,No,3.8200E-008,0,4
 People Internal Gains Nominal, PERIMETER_ZN_3 ZN OFFICE WHOLEBUILDING - SM OFFICE PEOPLE,OFFICESMALL BLDG_OCC_SCH,PERIMETER_ZN_3 ZN,113.45,6.8,6.8,6.028E-002,16.590,0.300,0.700,AutoCalculate,OFFICESMALL ACTIVITY_SCH,No,3.8200E-008,0,7
 People Internal Gains Nominal, PERIMETER_ZN_4 ZN OFFICE WHOLEBUILDING - SM OFFICE PEOPLE,OFFICESMALL BLDG_OCC_SCH,PERIMETER_ZN_4 ZN,67.30,4.1,4.1,6.028E-002,16.590,0.300,0.700,AutoCalculate,OFFICESMALL ACTIVITY_SCH,No,3.8200E-008,0,4
! <Lights Internal Gains Nominal>,Name,Schedule Name,Zone Name,Zone Floor Area {m2},# Zone Occupants,Lighting Level {W},Lights/Floor Area {W/m2},Lights per person {W/person},Fraction Return Air,Fraction Radiant,Fraction Short Wave,Fraction Convected,Fraction Replaceable,End-Use Category,Nominal Minimum Lighting Level {W},Nominal Maximum Lighting Level {W}
 Lights Internal Gains Nominal, CORE_ZN ZN OFFICE WHOLEBUILDING - SM OFFICE LIGHTS,OFFICESMALL BLDG_LIGHT_SCH,CORE_ZN ZN,149.66,9.0,1610.899,10.764,178.571,0.000,0.700,0.200,0.100,1.000,General,0.000,1610.899
 Lights Internal Gains Nominal, PERIMETER_ZN_1 ZN OFFICE WHOLEBUILDING - SM OFFICE LIGHTS,OFFICESMALL BLDG_LIGHT_SCH,PERIMETER_ZN_1 ZN,113.45,6.8,1221.166,10.764,178.571,0.000,0.700,0.200,0.100,1.000,General,0.000,1221.166
 Lights Internal Gains Nominal, PERIMETER_ZN_2 ZN OFFICE WHOLEBUILDING - SM OFFICE LIGHTS,OFFICESMALL BLDG_LIGHT_SCH,PERIMETER_ZN_2 ZN,67.30,4.1,724.411,10.764,178.571,0.000,0.700,0.200,0.100,1.000,General,0.000,724.411
 Lights Internal Gains Nominal, PERIMETER_ZN_3 ZN OFFICE WHOLEBUILDING - SM OFFICE LIGHTS,OFFICESMALL BLDG_LIGHT_SCH,PERIMETER_ZN_3 ZN,113.45,6.8,1221.166,10.764,178.571,0.000,0.700,0.200,0.100,1.000,General,0.000,1221.166
 Lights Internal Gains Nominal, PERIMETER_ZN_4 ZN OFFICE WHOLEBUILDING - SM OFFICE LIGHTS,OFFICESMALL BLDG_LIGHT_SCH,PERIMETER_ZN_4 ZN,67.30,4.1,724.411,10.764,178.571,0.000,0.700,0.200,0.100,1.000,General,0.000,724.411
! <ElectricEquipment Internal Gains Nominal>,Name,Schedule Name,Zone Name,Zone Floor Area {m2},# Zone Occupants,Equipment Level {W},Equipment/Floor Area {W/m2},Equipment per person {W/person},Fraction Latent,Fraction Radiant,Fraction Lost,Fraction Convected,End-Use SubCategory,Nominal Minimum Equipment Level {W},Nominal Maximum Equipment Level {W}
 ElectricEquipment Internal Gains Nominal, CORE_ZN ZN OFFICE WHOLEBUILDING - SM OFFICE ELEC EQUIP,OFFICESMALL BLDG_EQUIP_SCH,CORE_ZN ZN,149.66,9.0,1014.866,6.781,112.500,0.000,0.500,0.000,0.500,General,0.000,1014.866
 ElectricEquipment Internal Gains Nominal, PERIMETER_ZN_1 ZN OFFICE WHOLEBUILDING - SM OFFICE ELEC EQUIP,OFFICESMALL BLDG_EQUIP_SCH,PERIMETER_ZN_1 ZN,113.45,6.8,769.334,6.781,112.500,0.000,0.500,0.000,0.500,General,0.000,769.334
 ElectricEquipment Internal Gains Nominal, PERIMETER_ZN_2 ZN OFFICE WHOLEBUILDING - SM OFFICE ELEC EQUIP,OFFICESMALL BLDG_EQUIP_SCH,PERIMETER_ZN_2 ZN,67.30,4.1,456.379,6.781,112.500,0.000,0.500,0.000,0.500,General,0.000,456.379
 ElectricEquipment Internal Gains Nominal, PERIMETER_ZN_3 ZN OFFICE WHOLEBUILDING - SM OFFICE ELEC EQUIP,OFFICESMALL BLDG_EQUIP_SCH,PERIMETER_ZN_3 ZN,113.45,6.8,769.334,6.781,112.500,0.000,0.500,0.000,0.500,General,0.000,769.334
 ElectricEquipment Internal Gains Nominal, PERIMETER_ZN_4 ZN OFFICE WHOLEBUILDING - SM OFFICE ELEC EQUIP,OFFICESMALL BLDG_EQUIP_SCH,PERIMETER_ZN_4 ZN,67.30,4.1,456.379,6.781,112.500,0.000,0.500,0.000,0.500,General,0.000,456.379
! <Shadowing/Sun Position Calculations Annual Simulations>, Calculation Method, Value {days}, Allowable Number Figures in Shadow Overlap {}, Polygon Clipping Algorithm, Sky Diffuse Modeling Algorithm, External Shading Calculation Method, Output External Shading Calculation Results, Disable Self-Shading Within Shading Zone Groups, Disable Self-Shading From Shading Zone Groups to Other Zones
Shadowing/Sun Position Calculations Annual Simulations,AverageOverDaysInFrequency,30,15000,SutherlandHodgman,SimpleSkyDiffuseModeling,InternalCalculation,No,No,No
! <Water Heater Information>,Type,Name,Volume {m3},Maximum Capacity {W},Standard Rated Recovery Efficiency, Standard Rated Energy Factor
! <ZoneInfiltration Airflow Stats Nominal>,Name,Schedule Name,Zone Name, Zone Floor Area {m2}, # Zone Occupants,Design Volume Flow Rate {m3/s},Volume Flow Rate/Floor Area {m3/s/m2},Volume Flow Rate/Exterior Surface Area {m3/s/m2},ACH - Air Changes per Hour,Equation A - Constant Term Coefficient {},Equation B - Temperature Term Coefficient {1/C},Equation C - Velocity Term Coefficient {s/m}, Equation D - Velocity Squared Term Coefficient {s2/m2}
 ZoneInfiltration Airflow Stats Nominal, PERIMETER_ZN_1 INFILTRATION,OFFICESMALL INFIL_QUARTER_ON_SCH,PERIMETER_ZN_1 ZN,113.45,6.8,9.059E-002,7.985E-004,1.025E-003,0.942,0.000,0.000,0.224,0.000
 ZoneInfiltration Airflow Stats Nominal, PERIMETER_ZN_2 INFILTRATION,OFFICESMALL INFIL_QUARTER_ON_SCH,PERIMETER_ZN_2 ZN,67.30,4.1,5.772E-002,8.577E-004,1.025E-003,1.012,0.000,0.000,0.224,0.000
 ZoneInfiltration Airflow Stats Nominal, PERIMETER_ZN_3 INFILTRATION,OFFICESMALL INFIL_QUARTER_ON_SCH,PERIMETER_ZN_3 ZN,113.45,6.8,8.659E-002,7.632E-004,1.025E-003,0.901,0.000,0.000,0.224,0.000
 ZoneInfiltration Airflow Stats Nominal, PERIMETER_ZN_4 INFILTRATION,OFFICESMALL INFIL_QUARTER_ON_SCH,PERIMETER_ZN_4 ZN,67.30,4.1,5.772E-002,8.577E-004,1.025E-003,1.012,0.000,0.000,0.224,0.000
! <AirFlow Model>, Simple
 AirFlow Model, Simple
! <RoomAir Model>, Zone Name, Mixing/Mundt/UCSDDV/UCSDCV/UCSDUFI/UCSDUFE/User Defined
RoomAir Model,ATTIC ZN,Mixing/Well-Stirred
RoomAir Model,CORE_ZN ZN,Mixing/Well-Stirred
RoomAir Model,PERIMETER_ZN_1 ZN,Mixing/Well-Stirred
RoomAir Model,PERIMETER_ZN_2 ZN,Mixing/Well-Stirred
RoomAir Model,PERIMETER_ZN_3 ZN,Mixing/Well-Stirred
RoomAir Model,PERIMETER_ZN_4 ZN,Mixing/Well-Stirred
! <AirflowNetwork Model:Control>, No Multizone or Distribution/Multizone with Distribution/Multizone without Distribution/Multizone with Distribution only during Fan Operation
AirflowNetwork Model:Control,NoMultizoneOrDistribution
! <Zone Volume Capacitance Multiplier>, Sensible Heat Capacity Multiplier, Moisture Capacity Multiplier, Carbon Dioxide Capacity Multiplier, Generic Contaminant Capacity Multiplier
Zone Volume Capacitance Multiplier,   1.000 ,   1.000,   1.000,   1.000
! <Load Timesteps in Zone Design Calculation Averaging Window>, Value
 Load Timesteps in Zone Design Calculation Averaging Window,    6
! <Heating Sizing Factor Information>, Sizing Factor ID, Value
 Heating Sizing Factor Information, Global,   1.2000    
 Heating Sizing Factor Information, Zone CORE_ZN ZN,   1.2000    
 Heating Sizing Factor Information, Zone PERIMETER_ZN_1 ZN,   1.2000    
 Heating Sizing Factor Information, Zone PERIMETER_ZN_2 ZN,   1.2000    
 Heating Sizing Factor Information, Zone PERIMETER_ZN_3 ZN,   1.2000    
 Heating Sizing Factor Information, Zone PERIMETER_ZN_4 ZN,   1.2000    
! <Cooling Sizing Factor Information>, Sizing Factor ID, Value
 Cooling Sizing Factor Information, Global,   1.2000    
 Cooling Sizing Factor Information, Zone CORE_ZN ZN,   1.2000    
 Cooling Sizing Factor Information, Zone PERIMETER_ZN_1 ZN,   1.2000    
 Cooling Sizing Factor Information, Zone PERIMETER_ZN_2 ZN,   1.2000    
 Cooling Sizing Factor Information, Zone PERIMETER_ZN_3 ZN,   1.2000    
 Cooling Sizing Factor Information, Zone PERIMETER_ZN_4 ZN,   1.2000    
! <Zone Sizing Information>, Zone Name, Load Type, Calc Des Load {W}, User Des Load {W}, Calc Des Air Flow Rate {m3/s}, User Des Air Flow Rate {m3/s}, Design Day Name, Date/Time of Peak, Temperature at Peak {C}, Humidity Ratio at Peak {kgWater/kgDryAir}, Floor Area {m2}, # Occupants, Calc Outdoor Air Flow Rate {m3/s}, Calc DOAS Heat Addition Rate {W}
 Zone Sizing Information, CORE_ZN ZN, Cooling, 3559.67250, 4271.60700, 0.26748, 0.32098, CHICAGO OHARE INTL AP ANN CLG .4% CONDNS DB=>MWB, 7/21 18:50:00, 29.46750, 1.49611E-002, 149.65740, 9.02103, 7.60260E-002, 0.00000
 Zone Sizing Information, CORE_ZN ZN, Heating, 3059.26650, 3671.11980, 0.13507, 0.16208, CHICAGO OHARE INTL AP ANN HTG 99.6% CONDNS DB, 1/21 24:00:00, -20.00000, 6.49857E-004, 149.65740, 9.02103, 7.60260E-002, 0.00000
 Zone Sizing Information, PERIMETER_ZN_1 ZN, Cooling, 3932.24998, 4718.69997, 0.29548, 0.35458, CHICAGO OHARE INTL AP ANN CLG .4% CONDNS DB=>MWB, 7/21 13:30:00, 33.03750, 1.49611E-002, 113.45000, 6.83853, 5.76326E-002, 0.00000
 Zone Sizing Information, PERIMETER_ZN_1 ZN, Heating, 6500.87873, 7801.05448, 0.28696, 0.34436, CHICAGO OHARE INTL AP ANN HTG 99.6% CONDNS DB, 1/21 07:00:00, -20.00000, 6.49857E-004, 113.45000, 6.83853, 5.76326E-002, 0.00000
 Zone Sizing Information, PERIMETER_ZN_2 ZN, Cooling, 3514.18351, 4217.02021, 0.26407, 0.31688, CHICAGO OHARE INTL AP ANN CLG .4% CONDNS DB=>MWB, 7/21 08:50:00, 27.19250, 1.49611E-002, 67.30000, 4.05670, 3.41884E-002, 0.00000
 Zone Sizing Information, PERIMETER_ZN_2 ZN, Heating, 3920.75512, 4704.90615, 0.17307, 0.20768, CHICAGO OHARE INTL AP ANN HTG 99.6% CONDNS DB, 1/21 07:00:00, -20.00000, 6.49857E-004, 67.30000, 4.05670, 3.41884E-002, 0.00000
 Zone Sizing Information, PERIMETER_ZN_3 ZN, Cooling, 3687.60030, 4425.12036, 0.27710, 0.33252, CHICAGO OHARE INTL AP ANN CLG .4% CONDNS DB=>MWB, 7/21 18:30:00, 29.99250, 1.49611E-002, 113.45000, 6.83853, 5.76326E-002, 0.00000
 Zone Sizing Information, PERIMETER_ZN_3 ZN, Heating, 6100.04922, 7320.05906, 0.26927, 0.32313, CHICAGO OHARE INTL AP ANN HTG 99.6% CONDNS DB, 1/21 07:00:00, -20.00000, 6.49857E-004, 113.45000, 6.83853, 5.76326E-002, 0.00000
 Zone Sizing Information, PERIMETER_ZN_4 ZN, Cooling, 3947.57086, 4737.08503, 0.29663, 0.35596, CHICAGO OHARE INTL AP ANN CLG .4% CONDNS DB=>MWB, 7/21 17:00:00, 31.83000, 1.49611E-002, 67.30000, 4.05670, 3.41884E-002, 0.00000
 Zone Sizing Information, PERIMETER_ZN_4 ZN, Heating, 3955.11138, 4746.13365, 0.17459, 0.20950, CHICAGO OHARE INTL AP ANN HTG 99.6% CONDNS DB, 1/21 07:00:00, -20.00000, 6.49857E-004, 67.30000, 4.05670, 3.41884E-002, 0.00000
! <Component Sizing Information>, Component Type, Component Name, Input Field Description, Value
 Component Sizing Information, ZoneHVAC:PackagedTerminalHeatPump, PTHP 1, Design Size Cooling Supply Air Flow Rate [m3/s], 0.32098
 Component Sizing Information, ZoneHVAC:PackagedTerminalHeatPump, PTHP 1, Design Size Heating Supply Air Flow Rate [m3/s], 0.32098
 Component Sizing Information, ZoneHVAC:PackagedTerminalHeatPump, PTHP 1, Design Size No Load Supply Air Flow Rate [m3/s], 0.32098
 Component Sizing Information, ZoneHVAC:PackagedTerminalHeatPump, PTHP 1, Design Size Outdoor Air Flow Rate During Cooling Operation [m3/s], 7.60260E-002
 Component Sizing Information, ZoneHVAC:PackagedTerminalHeatPump, PTHP 1, Design Size Outdoor Air Flow Rate During Heating Operation [m3/s], 7.60260E-002
 Component Sizing Information, ZoneHVAC:PackagedTerminalHeatPump, PTHP 1, Design Size Outdoor Air Flow Rate When No Cooling or Heating is Needed [m3/s], 7.60260E-002
 Component Sizing Information, ZoneHVAC:PackagedTerminalHeatPump, PTHP 1, Design Size Maximum Supply Air Temperature from Supplemental Heater [C], 40.00000
 Component Sizing Information, Coil:Cooling:DX:SingleSpeed, PTHP 1 SPD DX CLG COIL 1, Design Size Rated Air Flow Rate [m3/s], 0.32098
 Component Sizing Information, Coil:Cooling:DX:SingleSpeed, PTHP 1 SPD DX CLG COIL 1, Design Size Gross Rated Total Cooling Capacity [W], 6405.66193
 Component Sizing Information, Coil:Cooling:DX:SingleSpeed, PTHP 1 SPD DX CLG COIL 1, Design Size Gross Rated Sensible Heat Ratio, 0.77296
! <DX Cooling Coil Standard Rating Information>, Component Type, Component Name, Standard Rating (Net) Cooling Capacity {W}, Standard Rated Net COP {W/W}, EER {Btu/W-h}, SEER {Btu/W-h}, IEER {Btu/W-h}
 DX Cooling Coil Standard Rating Information, Coil:Cooling:DX:SingleSpeed, PTHP 1 SPD DX CLG COIL 1, 6173.6, 2.61, 8.90, 8.98, 9.09
 Component Sizing Information, Coil:Heating:DX:SingleSpeed, PTHP 1 SPD DX HTG COIL 1, Design Size Rated Air Flow Rate [m3/s], 0.32098
 Component Sizing Information, Coil:Heating:DX:SingleSpeed, PTHP 1 SPD DX HTG COIL 1, Design Size Gross Rated Heating Capacity [W], 6405.66193
 Component Sizing Information, Coil:Heating:DX:SingleSpeed, PTHP 1 SPD DX HTG COIL 1, Design Size Resistive Defrost Heater Capacity [W], 6405.66193
 Component Sizing Information, Coil:Heating:DX:SingleSpeed, PTHP 1 SPD DX HTG COIL 1, User-Specified Resistive Defrost Heater Capacity [W], 2000.00000
! <DX Heating Coil Standard Rating Information>, Component Type, Component Name, High Temperature Heating (net) Rating Capacity {W}, Low Temperature Heating (net) Rating Capacity {W}, HSPF {Btu/W-h}, Region Number
 DX Heating Coil Standard Rating Information, Coil:Heating:DX:SingleSpeed, PTHP 1 SPD DX HTG COIL 1, 5286.4, 5108.5, 12.36, 4
 Component Sizing Information, Fan:ConstantVolume, PTHP CV FAN 1, Design Size Maximum Flow Rate [m3/s], 0.32098
 Component Sizing Information, Coil:Heating:Electric, PTHP ELEC HTG BACKUP COIL 1, Design Size Nominal Capacity [W], 7418.70466
 Component Sizing Information, ZoneHVAC:IdealLoadsAirSystem, PERIMETER_ZN_1 ZN1AIR, User-Specified Maximum Heating Air Flow Rate [m3/s], 0.00000
 Component Sizing Information, ZoneHVAC:IdealLoadsAirSystem, PERIMETER_ZN_1 ZN1AIR, User-Specified Maximum Cooling Air Flow Rate [m3/s], 0.00000
 Component Sizing Information, ZoneHVAC:PackagedTerminalHeatPump, PTHP 3, Design Size Cooling Supply Air Flow Rate [m3/s], 0.31688
 Component Sizing Information, ZoneHVAC:PackagedTerminalHeatPump, PTHP 3, Design Size Heating Supply Air Flow Rate [m3/s], 0.31688
 Component Sizing Information, ZoneHVAC:PackagedTerminalHeatPump, PTHP 3, Design Size No Load Supply Air Flow Rate [m3/s], 0.31688
 Component Sizing Information, ZoneHVAC:PackagedTerminalHeatPump, PTHP 3, Design Size Outdoor Air Flow Rate During Cooling Operation [m3/s], 3.41884E-002
 Component Sizing Information, ZoneHVAC:PackagedTerminalHeatPump, PTHP 3, Design Size Outdoor Air Flow Rate During Heating Operation [m3/s], 3.41884E-002
 Component Sizing Information, ZoneHVAC:PackagedTerminalHeatPump, PTHP 3, Design Size Outdoor Air Flow Rate When No Cooling or Heating is Needed [m3/s], 3.41884E-002
 Component Sizing Information, ZoneHVAC:PackagedTerminalHeatPump, PTHP 3, Design Size Maximum Supply Air Temperature from Supplemental Heater [C], 40.00000
 Component Sizing Information, Coil:Cooling:DX:SingleSpeed, PTHP 1 SPD DX CLG COIL 3, Design Size Rated Air Flow Rate [m3/s], 0.31688
 Component Sizing Information, Coil:Cooling:DX:SingleSpeed, PTHP 1 SPD DX CLG COIL 3, Design Size Gross Rated Total Cooling Capacity [W], 5245.51539
 Component Sizing Information, Coil:Cooling:DX:SingleSpeed, PTHP 1 SPD DX CLG COIL 3, Design Size Gross Rated Sensible Heat Ratio, 0.80066
 DX Cooling Coil Standard Rating Information, Coil:Cooling:DX:SingleSpeed, PTHP 1 SPD DX CLG COIL 3, 5013.7, 2.53, 8.64, 8.70, 8.70
 Component Sizing Information, Coil:Heating:DX:SingleSpeed, PTHP 1 SPD DX HTG COIL 3, Design Size Rated Air Flow Rate [m3/s], 0.31688
 Component Sizing Information, Coil:Heating:DX:SingleSpeed, PTHP 1 SPD DX HTG COIL 3, Design Size Gross Rated Heating Capacity [W], 5245.51539
 Component Sizing Information, Coil:Heating:DX:SingleSpeed, PTHP 1 SPD DX HTG COIL 3, Design Size Resistive Defrost Heater Capacity [W], 5245.51539
 Component Sizing Information, Coil:Heating:DX:SingleSpeed, PTHP 1 SPD DX HTG COIL 3, User-Specified Resistive Defrost Heater Capacity [W], 2000.00000
 DX Heating Coil Standard Rating Information, Coil:Heating:DX:SingleSpeed, PTHP 1 SPD DX HTG COIL 3, 4370.8, 4225.1, 11.86, 4
 Component Sizing Information, Fan:ConstantVolume, PTHP CV FAN 3, Design Size Maximum Flow Rate [m3/s], 0.31688
 Component Sizing Information, Coil:Heating:Electric, PTHP ELEC HTG BACKUP COIL 3, Design Size Nominal Capacity [W], 6390.03946
 Component Sizing Information, ZoneHVAC:PackagedTerminalHeatPump, PTHP 4, Design Size Cooling Supply Air Flow Rate [m3/s], 0.33252
 Component Sizing Information, ZoneHVAC:PackagedTerminalHeatPump, PTHP 4, Design Size Heating Supply Air Flow Rate [m3/s], 0.33252
 Component Sizing Information, ZoneHVAC:PackagedTerminalHeatPump, PTHP 4, Design Size No Load Supply Air Flow Rate [m3/s], 0.33252
 Component Sizing Information, ZoneHVAC:PackagedTerminalHeatPump, PTHP 4, Design Size Outdoor Air Flow Rate During Cooling Operation [m3/s], 5.76326E-002
 Component Sizing Information, ZoneHVAC:PackagedTerminalHeatPump, PTHP 4, Design Size Outdoor Air Flow Rate During Heating Operation [m3/s], 5.76326E-002
 Component Sizing Information, ZoneHVAC:PackagedTerminalHeatPump, PTHP 4, Design Size Outdoor Air Flow Rate When No Cooling or Heating is Needed [m3/s], 5.76326E-002
 Component Sizing Information, ZoneHVAC:PackagedTerminalHeatPump, PTHP 4, Design Size Maximum Supply Air Temperature from Supplemental Heater [C], 40.00000
 Component Sizing Information, Coil:Cooling:DX:SingleSpeed, PTHP 1 SPD DX CLG COIL 4, Design Size Rated Air Flow Rate [m3/s], 0.33252
 Component Sizing Information, Coil:Cooling:DX:SingleSpeed, PTHP 1 SPD DX CLG COIL 4, Design Size Gross Rated Total Cooling Capacity [W], 6236.54784
 Component Sizing Information, Coil:Cooling:DX:SingleSpeed, PTHP 1 SPD DX CLG COIL 4, Design Size Gross Rated Sensible Heat Ratio, 0.79849
 DX Cooling Coil Standard Rating Information, Coil:Cooling:DX:SingleSpeed, PTHP 1 SPD DX CLG COIL 4, 5995.1, 2.58, 8.82, 8.89, 8.97
 Component Sizing Information, Coil:Heating:DX:SingleSpeed, PTHP 1 SPD DX HTG COIL 4, Design Size Rated Air Flow Rate [m3/s], 0.33252
 Component Sizing Information, Coil:Heating:DX:SingleSpeed, PTHP 1 SPD DX HTG COIL 4, Design Size Gross Rated Heating Capacity [W], 6236.54784
 Component Sizing Information, Coil:Heating:DX:SingleSpeed, PTHP 1 SPD DX HTG COIL 4, Design Size Resistive Defrost Heater Capacity [W], 6236.54784
 Component Sizing Information, Coil:Heating:DX:SingleSpeed, PTHP 1 SPD DX HTG COIL 4, User-Specified Resistive Defrost Heater Capacity [W], 2000.00000
 DX Heating Coil Standard Rating Information, Coil:Heating:DX:SingleSpeed, PTHP 1 SPD DX HTG COIL 4, 5162.3, 4989.1, 12.27, 4
 Component Sizing Information, Fan:ConstantVolume, PTHP CV FAN 4, Design Size Maximum Flow Rate [m3/s], 0.33252
 Component Sizing Information, Coil:Heating:Electric, PTHP ELEC HTG BACKUP COIL 4, Design Size Nominal Capacity [W], 10160.76635
 Component Sizing Information, ZoneHVAC:PackagedTerminalHeatPump, PTHP 5, Design Size Cooling Supply Air Flow Rate [m3/s], 0.35596
 Component Sizing Information, ZoneHVAC:PackagedTerminalHeatPump, PTHP 5, Design Size Heating Supply Air Flow Rate [m3/s], 0.35596
 Component Sizing Information, ZoneHVAC:PackagedTerminalHeatPump, PTHP 5, Design Size No Load Supply Air Flow Rate [m3/s], 0.35596
 Component Sizing Information, ZoneHVAC:PackagedTerminalHeatPump, PTHP 5, Design Size Outdoor Air Flow Rate During Cooling Operation [m3/s], 3.41884E-002
 Component Sizing Information, ZoneHVAC:PackagedTerminalHeatPump, PTHP 5, Design Size Outdoor Air Flow Rate During Heating Operation [m3/s], 3.41884E-002
 Component Sizing Information, ZoneHVAC:PackagedTerminalHeatPump, PTHP 5, Design Size Outdoor Air Flow Rate When No Cooling or Heating is Needed [m3/s], 3.41884E-002
 Component Sizing Information, ZoneHVAC:PackagedTerminalHeatPump, PTHP 5, Design Size Maximum Supply Air Temperature from Supplemental Heater [C], 40.00000
 Component Sizing Information, Coil:Cooling:DX:SingleSpeed, PTHP 1 SPD DX CLG COIL 5, Design Size Rated Air Flow Rate [m3/s], 0.35596
 Component Sizing Information, Coil:Cooling:DX:SingleSpeed, PTHP 1 SPD DX CLG COIL 5, Design Size Gross Rated Total Cooling Capacity [W], 6024.04196
 Component Sizing Information, Coil:Cooling:DX:SingleSpeed, PTHP 1 SPD DX CLG COIL 5, Design Size Gross Rated Sensible Heat Ratio, 0.80062
 DX Cooling Coil Standard Rating Information, Coil:Cooling:DX:SingleSpeed, PTHP 1 SPD DX CLG COIL 5, 5763.9, 2.54, 8.67, 8.73, 8.74
 Component Sizing Information, Coil:Heating:DX:SingleSpeed, PTHP 1 SPD DX HTG COIL 5, Design Size Rated Air Flow Rate [m3/s], 0.35596
 Component Sizing Information, Coil:Heating:DX:SingleSpeed, PTHP 1 SPD DX HTG COIL 5, Design Size Gross Rated Heating Capacity [W], 6024.04196
 Component Sizing Information, Coil:Heating:DX:SingleSpeed, PTHP 1 SPD DX HTG COIL 5, Design Size Resistive Defrost Heater Capacity [W], 6024.04196
 Component Sizing Information, Coil:Heating:DX:SingleSpeed, PTHP 1 SPD DX HTG COIL 5, User-Specified Resistive Defrost Heater Capacity [W], 2000.00000
 DX Heating Coil Standard Rating Information, Coil:Heating:DX:SingleSpeed, PTHP 1 SPD DX HTG COIL 5, 5013.3, 4846.0, 11.72, 4
 Component Sizing Information, Fan:ConstantVolume, PTHP CV FAN 5, Design Size Maximum Flow Rate [m3/s], 0.35596
 Component Sizing Information, Coil:Heating:Electric, PTHP ELEC HTG BACKUP COIL 5, Design Size Nominal Capacity [W], 6431.26699
Water Heater Information,WaterHeater:Mixed,40.0GAL ELECTRICITY WATER HEATER - 40KBTU/HR 1.0 THERM EFF,0.1514,11722.8,0.985,0.5080
 Component Sizing Information, PlantLoop, MAIN SERVICE WATER LOOP, Maximum Loop Flow Rate [m3/s], 4.03777E-006
 Component Sizing Information, PlantLoop, MAIN SERVICE WATER LOOP, Plant Loop Volume [m3], 4.84533E-004
 Component Sizing Information, Pump:ConstantSpeed, SERVICE WATER LOOP PUMP, Design Flow Rate [m3/s], 4.03777E-006
 Component Sizing Information, Pump:ConstantSpeed, SERVICE WATER LOOP PUMP, Design Power Consumption [W], 6.27470E-009
 Component Sizing Information, WaterHeater:Mixed, 40.0GAL ELECTRICITY WATER HEATER - 40KBTU/HR 1.0 THERM EFF, Use Side Design Flow Rate [m3/s], 4.03777E-006
! <Environment>,Environment Name,Environment Type, Start Date, End Date, Start DayOfWeek, Duration {#days}, Source:Start DayOfWeek,  Use Daylight Saving, Use Holidays, Apply Weekend Holiday Rule,  Use Rain Values, Use Snow Values
! <Environment:Special Days>, Special Day Name, Special Day Type, Source, Start Date, Duration {#days}
! <Environment:Daylight Saving>, Daylight Saving Indicator, Source, Start Date, End Date
! <Environment:WarmupDays>, NumberofWarmupDays
Environment,RUN PERIOD 1,WeatherFileRunPeriod,01/01,12/31,Sunday,365,Use RunPeriod Specified Day,No,No,No,Yes,Yes
Environment:Daylight Saving,No,RunPeriod Object
Environment:WarmupDays,  6
! <Tabular Report>,Style,Unit Conversion
Tabular Report,HTML,None
! <Warmup Convergence Information>,Zone Name,Environment Type/Name,Average Warmup Temperature Difference {deltaC},Std Dev Warmup Temperature Difference {deltaC},Max Temperature Pass/Fail Convergence,Min Temperature Pass/Fail Convergence,Average Warmup Load Difference {W},Std Dev Warmup Load Difference {W},Heating Load Pass/Fail Convergence,Cooling Load Pass/Fail Convergence
 Warmup Convergence Information,ATTIC ZN,RunPeriod: RUN PERIOD 1,4.5457141781E-002,4.7206700959E-002,Pass,Pass,0.0000000000,0.0000000000,Pass,Pass
 Warmup Convergence Information,CORE_ZN ZN,RunPeriod: RUN PERIOD 1,4.0068751351E-003,2.4617979563E-003,Pass,Pass,0.0000000000,0.0000000000,Pass,Pass
 Warmup Convergence Information,PERIMETER_ZN_1 ZN,RunPeriod: RUN PERIOD 1,9.5609913278E-002,0.1033241069,Pass,Pass,0.8373656009,2.0247622810,Pass,Pass
 Warmup Convergence Information,PERIMETER_ZN_2 ZN,RunPeriod: RUN PERIOD 1,2.1993851051E-006,4.8090278513E-006,Pass,Pass,4.6802583742E-002,5.7791408950E-002,Pass,Pass
 Warmup Convergence Information,PERIMETER_ZN_3 ZN,RunPeriod: RUN PERIOD 1,3.8459659576E-006,8.1281176479E-006,Pass,Pass,2.2993977937E-002,2.1244739285E-002,Pass,Pass
 Warmup Convergence Information,PERIMETER_ZN_4 ZN,RunPeriod: RUN PERIOD 1,2.1935191810E-006,4.6819716613E-006,Pass,Pass,2.3348518045E-002,2.1302011073E-002,Pass,Pass
! <Program Control Information:Threads/Parallel Sims>, Threading Supported,Maximum Number of Threads, Env Set Threads (OMP_NUM_THREADS), EP Env Set Threads (EP_OMP_NUM_THREADS), IDF Set Threads, Number of Threads Used (Interior Radiant Exchange), Number Nominal Surfaces, Number Parallel Sims
Program Control:Threads/Parallel Sims, No,1, N/A, N/A, N/A, N/A, N/A, N/A
End of Data
