Program Version,EnergyPlus, Version 8.9.0-eba93e8e1b, YMD=2018.07.10 10:47
! This file shows details about the branches, nodes, and other
! elements of the flow connections.
! This file is intended for use in "debugging" potential problems
! that may also be detected by the program, but may be more easily
! identified by "eye".
! This file is also intended to support software which draws a
! schematic diagram of the HVAC system.
! ===============================================================
! #Nodes,<Number of Unique Nodes>
 #Nodes,64
! <Node>,<NodeNumber>,<Node Name>,<Node Fluid Type>,<# Times Node Referenced After Definition>
 Node,1,NODE 10,Air,3
 Node,2,NODE 9,Air,3
 Node,3,NODE 8,Air,2
 Node,4,NODE 7,Air,2
 Node,5,NODE 14,Air,3
 Node,6,NODE 13,Air,3
 Node,7,NODE 16,Air,3
 Node,8,NODE 15,Air,3
 Node,9,NODE 18,Air,3
 Node,10,NODE 17,Air,3
 Node,11,NODE 52,Water,2
 Node,12,NODE 58,Water,1
 Node,13,NODE 54,Water,1
 Node,14,NODE 59,Water,1
 Node,15,NODE 60,Water,1
 Node,16,NODE 61,Water,1
 Node,17,NODE 63,Water,1
 Node,18,NODE 53,Water,4
 Node,19,NODE 55,Water,2
 Node,20,NODE 64,Water,1
 Node,21,NODE 57,Water,1
 Node,22,NODE 62,Water,1
 Node,23,NODE 66,Water,1
 Node,24,NODE 67,Water,1
 Node,25,MAIN SERVICE WATER LOOP DEMAND BYPASS PIPE INLET NODE,Water,1
 Node,26,MAIN SERVICE WATER LOOP DEMAND BYPASS PIPE OUTLET NODE,Water,1
 Node,27,NODE 65,Water,1
 Node,28,NODE 56,Water,2
 Node,29,NODE 6,Air,0
 Node,30,CORE_ZN ZN RETURN AIR NODE,Air,0
 Node,31,NODE 1,Air,0
 Node,32,PERIMETER_ZN_1 ZN RETURN AIR NODE,Air,0
 Node,33,NODE 3,Air,0
 Node,34,PERIMETER_ZN_2 ZN RETURN AIR NODE,Air,0
 Node,35,NODE 4,Air,0
 Node,36,PERIMETER_ZN_3 ZN RETURN AIR NODE,Air,0
 Node,37,NODE 5,Air,0
 Node,38,PERIMETER_ZN_4 ZN RETURN AIR NODE,Air,0
 Node,39,PTHP 1 OA NODE,Air,1
 Node,40,PTHP 3 OA NODE,Air,1
 Node,41,PTHP 4 OA NODE,Air,1
 Node,42,PTHP 5 OA NODE,Air,1
 Node,43,MODEL OUTDOOR AIR NODE,Air,0
 Node,44,PTHP 1 MIXED AIR NODE,Air,1
 Node,45,PTHP 1 RELIEF AIR NODE,Air,0
 Node,46,PTHP 3 MIXED AIR NODE,Air,1
 Node,47,PTHP 3 RELIEF AIR NODE,Air,0
 Node,48,PTHP 4 MIXED AIR NODE,Air,1
 Node,49,PTHP 4 RELIEF AIR NODE,Air,0
 Node,50,PTHP 5 MIXED AIR NODE,Air,1
 Node,51,PTHP 5 RELIEF AIR NODE,Air,0
 Node,52,PTHP 1 HEATING COIL OUTLET NODE,Air,1
 Node,53,PTHP 1 FAN OUTLET NODE,Air,1
 Node,54,PTHP 3 HEATING COIL OUTLET NODE,Air,1
 Node,55,PTHP 3 FAN OUTLET NODE,Air,1
 Node,56,PTHP 4 HEATING COIL OUTLET NODE,Air,1
 Node,57,PTHP 4 FAN OUTLET NODE,Air,1
 Node,58,PTHP 5 HEATING COIL OUTLET NODE,Air,1
 Node,59,PTHP 5 FAN OUTLET NODE,Air,1
 Node,60,PTHP 1 COOLING COIL OUTLET NODE,Air,1
 Node,61,PTHP 3 COOLING COIL OUTLET NODE,Air,1
 Node,62,PTHP 4 COOLING COIL OUTLET NODE,Air,1
 Node,63,PTHP 5 COOLING COIL OUTLET NODE,Air,1
 Node,64,PERIMETER_ZN_1 ZN1AIR OUTDOOR AIR INLET NODE,Air,1
! ===============================================================
! Suspicious nodes have 0 references.  It is normal for some nodes, however.
! Listing nodes with 0 references (culled from previous list):
! <Suspicious Node>,<NodeNumber>,<Node Name>,<Node Fluid Type>,<# Times Node Referenced After Definition>
 Suspicious Node,29,NODE 6,Air,0
 Suspicious Node,30,CORE_ZN ZN RETURN AIR NODE,Air,0
 Suspicious Node,31,NODE 1,Air,0
 Suspicious Node,32,PERIMETER_ZN_1 ZN RETURN AIR NODE,Air,0
 Suspicious Node,33,NODE 3,Air,0
 Suspicious Node,34,PERIMETER_ZN_2 ZN RETURN AIR NODE,Air,0
 Suspicious Node,35,NODE 4,Air,0
 Suspicious Node,36,PERIMETER_ZN_3 ZN RETURN AIR NODE,Air,0
 Suspicious Node,37,NODE 5,Air,0
 Suspicious Node,38,PERIMETER_ZN_4 ZN RETURN AIR NODE,Air,0
 Suspicious Node,43,MODEL OUTDOOR AIR NODE,Air,0
 Suspicious Node,45,PTHP 1 RELIEF AIR NODE,Air,0
 Suspicious Node,47,PTHP 3 RELIEF AIR NODE,Air,0
 Suspicious Node,49,PTHP 4 RELIEF AIR NODE,Air,0
 Suspicious Node,51,PTHP 5 RELIEF AIR NODE,Air,0
! ===============================================================
! <#Branch Lists>,<Number of Branch Lists>
 #Branch Lists,2
! <Branch List>,<Branch List Count>,<Branch List Name>,<Loop Name>,<Loop Type>,<Number of Branches>
! <Branch>,<Branch Count>,<Branch Name>,<Loop Name>,<Loop Type>,<Branch Inlet Node Name>,<Branch Outlet Node Name>
 Branch List,1,MAIN SERVICE WATER LOOP SUPPLY BRANCHES,MAIN SERVICE WATER LOOP,Plant Supply,4
   Branch,1,MAIN SERVICE WATER LOOP SUPPLY INLET BRANCH,MAIN SERVICE WATER LOOP,Plant Supply,NODE 52,NODE 58
   Branch,2,MAIN SERVICE WATER LOOP SUPPLY BRANCH 1,MAIN SERVICE WATER LOOP,Plant Supply,NODE 54,NODE 59
   Branch,3,MAIN SERVICE WATER LOOP SUPPLY BRANCH 2,MAIN SERVICE WATER LOOP,Plant Supply,NODE 60,NODE 61
   Branch,4,MAIN SERVICE WATER LOOP SUPPLY OUTLET BRANCH,MAIN SERVICE WATER LOOP,Plant Supply,NODE 63,NODE 53
 Branch List,2,MAIN SERVICE WATER LOOP DEMAND BRANCHES,MAIN SERVICE WATER LOOP,Plant Demand,5
   Branch,1,MAIN SERVICE WATER LOOP DEMAND INLET BRANCH,MAIN SERVICE WATER LOOP,Plant Demand,NODE 55,NODE 64
   Branch,2,MAIN SERVICE WATER LOOP DEMAND BRANCH 1,MAIN SERVICE WATER LOOP,Plant Demand,NODE 57,NODE 62
   Branch,3,MAIN SERVICE WATER LOOP DEMAND BRANCH 2,MAIN SERVICE WATER LOOP,Plant Demand,NODE 66,NODE 67
   Branch,4,MAIN SERVICE WATER LOOP DEMAND BYPASS BRANCH,MAIN SERVICE WATER LOOP,Plant Demand,MAIN SERVICE WATER LOOP DEMAND BYPASS PIPE INLET NODE,MAIN SERVICE WATER LOOP DEMAND BYPASS PIPE OUTLET NODE
   Branch,5,MAIN SERVICE WATER LOOP DEMAND OUTLET BRANCH,MAIN SERVICE WATER LOOP,Plant Demand,NODE 65,NODE 56
! ===============================================================
! <#Supply Air Paths>,<Number of Supply Air Paths>
 #Supply Air Paths,0
! <Supply Air Path>,<Supply Air Path Count>,<Supply Air Path Name>,<AirLoopHVAC Name>
! <#Components on Supply Air Path>,<Number of Components>
! <Supply Air Path Component>,<Component Count>,<Component Type>,<Component Name>,<AirLoopHVAC Name>
! <#Outlet Nodes on Supply Air Path Component>,<Number of Nodes>
! <Supply Air Path Component Nodes>,<Node Count>,<Component Type>,<Component Name>,<Inlet Node Name>,<Outlet Node Name>,<AirLoopHVAC Name>
! ===============================================================
! <#Return Air Paths>,<Number of Return Air Paths>
 #Return Air Paths,0
! <Return Air Path>,<Return Air Path Count>,<Return Air Path Name>,<AirLoopHVAC Name>
! <#Components on Return Air Path>,<Number of Components>
! <Return Air Path Component>,<Component Count>,<Component Type>,<Component Name>,<AirLoopHVAC Name>
! <#Inlet Nodes on Return Air Path Component>,<Number of Nodes>
! <Return Air Path Component Nodes>,<Node Count>,<Component Type>,<Component Name>,<Inlet Node Name>,<Outlet Node Name>,<AirLoopHVAC Name>
! ===============================================================
! #Outdoor Air Nodes,<Number of Outdoor Air Nodes>
 #Outdoor Air Nodes,6
! <Outdoor Air Node>,<NodeNumber>,<Node Name>
 Outdoor Air Node,39,PTHP 1 OA NODE
 Outdoor Air Node,40,PTHP 3 OA NODE
 Outdoor Air Node,41,PTHP 4 OA NODE
 Outdoor Air Node,42,PTHP 5 OA NODE
 Outdoor Air Node,43,MODEL OUTDOOR AIR NODE
 Outdoor Air Node,64,PERIMETER_ZN_1 ZN1AIR OUTDOOR AIR INLET NODE
! ===============================================================
! <#Component Sets>,<Number of Component Sets>
 #Component Sets,29
! <Component Set>,<Component Set Count>,<Parent Object Type>,<Parent Object Name>,<Component Type>,<Component Name>,<Inlet Node ID>,<Outlet Node ID>,<Description>
 Component Set,1,BRANCH,MAIN SERVICE WATER LOOP SUPPLY INLET BRANCH,PUMP:CONSTANTSPEED,SERVICE WATER LOOP PUMP,NODE 52,NODE 58,Water Nodes
 Component Set,2,BRANCH,MAIN SERVICE WATER LOOP SUPPLY BRANCH 1,WATERHEATER:MIXED,40.0GAL ELECTRICITY WATER HEATER - 40KBTU/HR 1.0 THERM EFF,NODE 54,NODE 59,Use Side Water Nodes
 Component Set,3,BRANCH,MAIN SERVICE WATER LOOP SUPPLY BRANCH 2,PIPE:ADIABATIC,PIPE ADIABATIC 1,NODE 60,NODE 61,Pipe Nodes
 Component Set,4,BRANCH,MAIN SERVICE WATER LOOP SUPPLY OUTLET BRANCH,PIPE:ADIABATIC,PIPE ADIABATIC 3,NODE 63,NODE 53,Pipe Nodes
 Component Set,5,BRANCH,MAIN SERVICE WATER LOOP DEMAND INLET BRANCH,PIPE:ADIABATIC,PIPE ADIABATIC 4,NODE 55,NODE 64,Pipe Nodes
 Component Set,6,BRANCH,MAIN SERVICE WATER LOOP DEMAND BRANCH 1,PIPE:ADIABATIC,PIPE ADIABATIC 2,NODE 57,NODE 62,Pipe Nodes
 Component Set,7,BRANCH,MAIN SERVICE WATER LOOP DEMAND BRANCH 2,WATERUSE:CONNECTIONS,WATER USE CONNECTIONS 1,NODE 66,NODE 67,DHW Nodes
 Component Set,8,BRANCH,MAIN SERVICE WATER LOOP DEMAND BYPASS BRANCH,PIPE:ADIABATIC,MAIN SERVICE WATER LOOP DEMAND BYPASS PIPE,MAIN SERVICE WATER LOOP DEMAND BYPASS PIPE INLET NODE,MAIN SERVICE WATER LOOP DEMAND BYPASS PIPE OUTLET NODE,Pipe Nodes
 Component Set,9,BRANCH,MAIN SERVICE WATER LOOP DEMAND OUTLET BRANCH,PIPE:ADIABATIC,PIPE ADIABATIC 5,NODE 65,NODE 56,Pipe Nodes
 Component Set,10,ZONEHVAC:PACKAGEDTERMINALHEATPUMP,PTHP 1,OUTDOORAIR:MIXER,PTHP 1 OA MIXER,PTHP 1 OA NODE,PTHP 1 MIXED AIR NODE,Air Nodes
 Component Set,11,ZONEHVAC:PACKAGEDTERMINALHEATPUMP,PTHP 3,OUTDOORAIR:MIXER,PTHP 3 OA MIXER,PTHP 3 OA NODE,PTHP 3 MIXED AIR NODE,Air Nodes
 Component Set,12,ZONEHVAC:PACKAGEDTERMINALHEATPUMP,PTHP 4,OUTDOORAIR:MIXER,PTHP 4 OA MIXER,PTHP 4 OA NODE,PTHP 4 MIXED AIR NODE,Air Nodes
 Component Set,13,ZONEHVAC:PACKAGEDTERMINALHEATPUMP,PTHP 5,OUTDOORAIR:MIXER,PTHP 5 OA MIXER,PTHP 5 OA NODE,PTHP 5 MIXED AIR NODE,Air Nodes
 Component Set,14,ZONEHVAC:PACKAGEDTERMINALHEATPUMP,PTHP 1,FAN:CONSTANTVOLUME,PTHP CV FAN 1,PTHP 1 HEATING COIL OUTLET NODE,PTHP 1 FAN OUTLET NODE,Air Nodes
 Component Set,15,ZONEHVAC:PACKAGEDTERMINALHEATPUMP,PTHP 3,FAN:CONSTANTVOLUME,PTHP CV FAN 3,PTHP 3 HEATING COIL OUTLET NODE,PTHP 3 FAN OUTLET NODE,Air Nodes
 Component Set,16,ZONEHVAC:PACKAGEDTERMINALHEATPUMP,PTHP 4,FAN:CONSTANTVOLUME,PTHP CV FAN 4,PTHP 4 HEATING COIL OUTLET NODE,PTHP 4 FAN OUTLET NODE,Air Nodes
 Component Set,17,ZONEHVAC:PACKAGEDTERMINALHEATPUMP,PTHP 5,FAN:CONSTANTVOLUME,PTHP CV FAN 5,PTHP 5 HEATING COIL OUTLET NODE,PTHP 5 FAN OUTLET NODE,Air Nodes
 Component Set,18,ZONEHVAC:PACKAGEDTERMINALHEATPUMP,PTHP 1,COIL:COOLING:DX:SINGLESPEED,PTHP 1 SPD DX CLG COIL 1,PTHP 1 MIXED AIR NODE,PTHP 1 COOLING COIL OUTLET NODE,Air Nodes
 Component Set,19,ZONEHVAC:PACKAGEDTERMINALHEATPUMP,PTHP 3,COIL:COOLING:DX:SINGLESPEED,PTHP 1 SPD DX CLG COIL 3,PTHP 3 MIXED AIR NODE,PTHP 3 COOLING COIL OUTLET NODE,Air Nodes
 Component Set,20,ZONEHVAC:PACKAGEDTERMINALHEATPUMP,PTHP 4,COIL:COOLING:DX:SINGLESPEED,PTHP 1 SPD DX CLG COIL 4,PTHP 4 MIXED AIR NODE,PTHP 4 COOLING COIL OUTLET NODE,Air Nodes
 Component Set,21,ZONEHVAC:PACKAGEDTERMINALHEATPUMP,PTHP 5,COIL:COOLING:DX:SINGLESPEED,PTHP 1 SPD DX CLG COIL 5,PTHP 5 MIXED AIR NODE,PTHP 5 COOLING COIL OUTLET NODE,Air Nodes
 Component Set,22,ZONEHVAC:PACKAGEDTERMINALHEATPUMP,PTHP 1,COIL:HEATING:DX:SINGLESPEED,PTHP 1 SPD DX HTG COIL 1,PTHP 1 COOLING COIL OUTLET NODE,PTHP 1 HEATING COIL OUTLET NODE,Air Nodes
 Component Set,23,ZONEHVAC:PACKAGEDTERMINALHEATPUMP,PTHP 3,COIL:HEATING:DX:SINGLESPEED,PTHP 1 SPD DX HTG COIL 3,PTHP 3 COOLING COIL OUTLET NODE,PTHP 3 HEATING COIL OUTLET NODE,Air Nodes
 Component Set,24,ZONEHVAC:PACKAGEDTERMINALHEATPUMP,PTHP 4,COIL:HEATING:DX:SINGLESPEED,PTHP 1 SPD DX HTG COIL 4,PTHP 4 COOLING COIL OUTLET NODE,PTHP 4 HEATING COIL OUTLET NODE,Air Nodes
 Component Set,25,ZONEHVAC:PACKAGEDTERMINALHEATPUMP,PTHP 5,COIL:HEATING:DX:SINGLESPEED,PTHP 1 SPD DX HTG COIL 5,PTHP 5 COOLING COIL OUTLET NODE,PTHP 5 HEATING COIL OUTLET NODE,Air Nodes
 Component Set,26,ZONEHVAC:PACKAGEDTERMINALHEATPUMP,PTHP 1,COIL:HEATING:ELECTRIC,PTHP ELEC HTG BACKUP COIL 1,PTHP 1 FAN OUTLET NODE,NODE 10,Air Nodes
 Component Set,27,ZONEHVAC:PACKAGEDTERMINALHEATPUMP,PTHP 3,COIL:HEATING:ELECTRIC,PTHP ELEC HTG BACKUP COIL 3,PTHP 3 FAN OUTLET NODE,NODE 14,Air Nodes
 Component Set,28,ZONEHVAC:PACKAGEDTERMINALHEATPUMP,PTHP 4,COIL:HEATING:ELECTRIC,PTHP ELEC HTG BACKUP COIL 4,PTHP 4 FAN OUTLET NODE,NODE 16,Air Nodes
 Component Set,29,ZONEHVAC:PACKAGEDTERMINALHEATPUMP,PTHP 5,COIL:HEATING:ELECTRIC,PTHP ELEC HTG BACKUP COIL 5,PTHP 5 FAN OUTLET NODE,NODE 18,Air Nodes
! ===============================================================
! <# Plant Loops>,<Number of Plant Loops>
 #Plant Loops,1
! <Plant Loop>,<Plant Loop Name>,<Loop Type>,<Inlet Node Name>,<Outlet Node Name>,<Branch List>,<Connector List>
! <Plant Loop Connector>,<Connector Type>,<Connector Name>,<Loop Name>,<Loop Type>,<Number of Inlets/Outlets>
! <Plant Loop Connector Branches>,<Connector Node Count>,<Connector Type>,<Connector Name>,<Inlet Branch>,<Outlet Branch>,<Loop Name>,<Loop Type>
! <Plant Loop Connector Nodes>,<Connector Node Count>,<Connector Type>,<Connector Name>,<Inlet Node>,<Outlet Node>,<Loop Name>,<Loop Type>
! <Plant Loop Supply Connection>,<Plant Loop Name>,<Supply Side Outlet Node Name>,<Demand Side Inlet Node Name>
! <Plant Loop Return Connection>,<Plant Loop Name>,<Demand Side Outlet Node Name>,<Supply Side Inlet Node Name>
 Plant Loop,MAIN SERVICE WATER LOOP,Demand,NODE 55,NODE 56,MAIN SERVICE WATER LOOP DEMAND BRANCHES,MAIN SERVICE WATER LOOP DEMAND CONNECTOR LIST
   Plant Loop Connector,Splitter,MAIN SERVICE WATER LOOP DEMAND SPLITTER,MAIN SERVICE WATER LOOP,Demand,3
     Plant Loop Connector Branches,1,Splitter,MAIN SERVICE WATER LOOP DEMAND SPLITTER,MAIN SERVICE WATER LOOP DEMAND INLET BRANCH,MAIN SERVICE WATER LOOP DEMAND BRANCH 1,MAIN SERVICE WATER LOOP,Demand
     Plant Loop Connector Nodes,   1,Splitter,MAIN SERVICE WATER LOOP DEMAND SPLITTER,NODE 64,NODE 57,MAIN SERVICE WATER LOOP,Demand
     Plant Loop Connector Branches,2,Splitter,MAIN SERVICE WATER LOOP DEMAND SPLITTER,MAIN SERVICE WATER LOOP DEMAND INLET BRANCH,MAIN SERVICE WATER LOOP DEMAND BRANCH 2,MAIN SERVICE WATER LOOP,Demand
     Plant Loop Connector Nodes,   2,Splitter,MAIN SERVICE WATER LOOP DEMAND SPLITTER,NODE 64,NODE 66,MAIN SERVICE WATER LOOP,Demand
     Plant Loop Connector Branches,3,Splitter,MAIN SERVICE WATER LOOP DEMAND SPLITTER,MAIN SERVICE WATER LOOP DEMAND INLET BRANCH,MAIN SERVICE WATER LOOP DEMAND BYPASS BRANCH,MAIN SERVICE WATER LOOP,Demand
     Plant Loop Connector Nodes,   3,Splitter,MAIN SERVICE WATER LOOP DEMAND SPLITTER,NODE 64,MAIN SERVICE WATER LOOP DEMAND BYPASS PIPE INLET NODE,MAIN SERVICE WATER LOOP,Demand
   Plant Loop Connector,Mixer,MAIN SERVICE WATER LOOP DEMAND MIXER,MAIN SERVICE WATER LOOP,Demand,3
     Plant Loop Connector Branches,1,Mixer,MAIN SERVICE WATER LOOP DEMAND MIXER,MAIN SERVICE WATER LOOP DEMAND BRANCH 1,MAIN SERVICE WATER LOOP DEMAND OUTLET BRANCH,MAIN SERVICE WATER LOOP,Demand
     Plant Loop Connector Nodes,   1,Mixer,MAIN SERVICE WATER LOOP DEMAND MIXER,NODE 62,NODE 65,MAIN SERVICE WATER LOOP,Demand
     Plant Loop Connector Branches,2,Mixer,MAIN SERVICE WATER LOOP DEMAND MIXER,MAIN SERVICE WATER LOOP DEMAND BRANCH 2,MAIN SERVICE WATER LOOP DEMAND OUTLET BRANCH,MAIN SERVICE WATER LOOP,Demand
     Plant Loop Connector Nodes,   2,Mixer,MAIN SERVICE WATER LOOP DEMAND MIXER,NODE 67,NODE 65,MAIN SERVICE WATER LOOP,Demand
     Plant Loop Connector Branches,3,Mixer,MAIN SERVICE WATER LOOP DEMAND MIXER,MAIN SERVICE WATER LOOP DEMAND BYPASS BRANCH,MAIN SERVICE WATER LOOP DEMAND OUTLET BRANCH,MAIN SERVICE WATER LOOP,Demand
     Plant Loop Connector Nodes,   3,Mixer,MAIN SERVICE WATER LOOP DEMAND MIXER,MAIN SERVICE WATER LOOP DEMAND BYPASS PIPE OUTLET NODE,NODE 65,MAIN SERVICE WATER LOOP,Demand
 Plant Loop,MAIN SERVICE WATER LOOP,Supply,NODE 52,NODE 53,MAIN SERVICE WATER LOOP SUPPLY BRANCHES,MAIN SERVICE WATER LOOP SUPPLY CONNECTOR LIST
   Plant Loop Connector,Splitter,MAIN SERVICE WATER LOOP SUPPLY SPLITTER,MAIN SERVICE WATER LOOP,Supply,2
     Plant Loop Connector Branches,1,Splitter,MAIN SERVICE WATER LOOP SUPPLY SPLITTER,MAIN SERVICE WATER LOOP SUPPLY INLET BRANCH,MAIN SERVICE WATER LOOP SUPPLY BRANCH 1,MAIN SERVICE WATER LOOP,Supply
     Plant Loop Connector Nodes,   1,Splitter,MAIN SERVICE WATER LOOP SUPPLY SPLITTER,NODE 58,NODE 54,MAIN SERVICE WATER LOOP,Supply
     Plant Loop Connector Branches,2,Splitter,MAIN SERVICE WATER LOOP SUPPLY SPLITTER,MAIN SERVICE WATER LOOP SUPPLY INLET BRANCH,MAIN SERVICE WATER LOOP SUPPLY BRANCH 2,MAIN SERVICE WATER LOOP,Supply
     Plant Loop Connector Nodes,   2,Splitter,MAIN SERVICE WATER LOOP SUPPLY SPLITTER,NODE 58,NODE 60,MAIN SERVICE WATER LOOP,Supply
   Plant Loop Connector,Mixer,MAIN SERVICE WATER LOOP SUPPLY MIXER,MAIN SERVICE WATER LOOP,Supply,2
     Plant Loop Connector Branches,1,Mixer,MAIN SERVICE WATER LOOP SUPPLY MIXER,MAIN SERVICE WATER LOOP SUPPLY BRANCH 1,MAIN SERVICE WATER LOOP SUPPLY OUTLET BRANCH,MAIN SERVICE WATER LOOP,Supply
     Plant Loop Connector Nodes,   1,Mixer,MAIN SERVICE WATER LOOP SUPPLY MIXER,NODE 59,NODE 63,MAIN SERVICE WATER LOOP,Supply
     Plant Loop Connector Branches,2,Mixer,MAIN SERVICE WATER LOOP SUPPLY MIXER,MAIN SERVICE WATER LOOP SUPPLY BRANCH 2,MAIN SERVICE WATER LOOP SUPPLY OUTLET BRANCH,MAIN SERVICE WATER LOOP,Supply
     Plant Loop Connector Nodes,   2,Mixer,MAIN SERVICE WATER LOOP SUPPLY MIXER,NODE 61,NODE 63,MAIN SERVICE WATER LOOP,Supply
 Plant Loop Supply Connection,MAIN SERVICE WATER LOOP,NODE 53,NODE 55
 Plant Loop Return Connection,MAIN SERVICE WATER LOOP,NODE 56,NODE 52
! ===============================================================
! <# Condenser Loops>,<Number of Condenser Loops>
 #Condenser Loops,0
! <Condenser Loop>,<Condenser Loop Name>,<Loop Type>,<Inlet Node Name>,<Outlet Node Name>,<Branch List>,<Connector List>
! <Condenser Loop Connector>,<Connector Type>,<Connector Name>,<Loop Name>,<Loop Type>,<Number of Inlets/Outlets>
! <Condenser Loop Connector Branches>,<Connector Node Count>,<Connector Type>,<Connector Name>,<Inlet Branch>,<Outlet Branch>,<Loop Name>,<Loop Type>
! <Condenser Loop Connector Nodes>,<Connector Node Count>,<Connector Type>,<Connector Name>,<Inlet Node>,<Outlet Node>,<Loop Name>,<Loop Type>
! <Condenser Loop Supply Connection>,<Condenser Loop Name>,<Supply Side Outlet Node Name>,<Demand Side Inlet Node Name>
! <Condenser Loop Return Connection>,<Condenser Loop Name>,<Demand Side Outlet Node Name>,<Supply Side Inlet Node Name>
! ===============================================================
! <# Controlled Zones>,<Number of Controlled Zones>
 #Controlled Zones,5
! <Controlled Zone>,<Controlled Zone Name>,<Equip List Name>,<Control List Name>,<Zone Node Name>,<# Inlet Nodes>,<# Exhaust Nodes>,<# Return Nodes>
! <Controlled Zone Inlet>,<Inlet Node Count>,<Controlled Zone Name>,<Supply Air Inlet Node Name>,<SD Sys:Cooling/Heating [DD:Cooling] Inlet Node Name>,<DD Sys:Heating Inlet Node Name>
! <Controlled Zone Exhaust>,<Exhaust Node Count>,<Controlled Zone Name>,<Exhaust Air Node Name>
 Controlled Zone,CORE_ZN ZN,CORE_ZN ZN EQUIPMENT LIST,,NODE 6,1,1,1
   Controlled Zone Inlet,1,CORE_ZN ZN,NODE 10,Undefined,N/A
   Controlled Zone Exhaust,1,CORE_ZN ZN,NODE 9
   Controlled Zone Return,1,CORE_ZN ZN,CORE_ZN ZN RETURN AIR NODE
 Controlled Zone,PERIMETER_ZN_1 ZN,PERIMETER_ZN_1 ZN EQUIPMENT LIST,,NODE 1,1,1,1
   Controlled Zone Inlet,1,PERIMETER_ZN_1 ZN,NODE 8,Undefined,N/A
   Controlled Zone Exhaust,1,PERIMETER_ZN_1 ZN,NODE 7
   Controlled Zone Return,1,PERIMETER_ZN_1 ZN,PERIMETER_ZN_1 ZN RETURN AIR NODE
 Controlled Zone,PERIMETER_ZN_2 ZN,PERIMETER_ZN_2 ZN EQUIPMENT LIST,,NODE 3,1,1,1
   Controlled Zone Inlet,1,PERIMETER_ZN_2 ZN,NODE 14,Undefined,N/A
   Controlled Zone Exhaust,1,PERIMETER_ZN_2 ZN,NODE 13
   Controlled Zone Return,1,PERIMETER_ZN_2 ZN,PERIMETER_ZN_2 ZN RETURN AIR NODE
 Controlled Zone,PERIMETER_ZN_3 ZN,PERIMETER_ZN_3 ZN EQUIPMENT LIST,,NODE 4,1,1,1
   Controlled Zone Inlet,1,PERIMETER_ZN_3 ZN,NODE 16,Undefined,N/A
   Controlled Zone Exhaust,1,PERIMETER_ZN_3 ZN,NODE 15
   Controlled Zone Return,1,PERIMETER_ZN_3 ZN,PERIMETER_ZN_3 ZN RETURN AIR NODE
 Controlled Zone,PERIMETER_ZN_4 ZN,PERIMETER_ZN_4 ZN EQUIPMENT LIST,,NODE 5,1,1,1
   Controlled Zone Inlet,1,PERIMETER_ZN_4 ZN,NODE 18,Undefined,N/A
   Controlled Zone Exhaust,1,PERIMETER_ZN_4 ZN,NODE 17
   Controlled Zone Return,1,PERIMETER_ZN_4 ZN,PERIMETER_ZN_4 ZN RETURN AIR NODE
! ===============================================================
! <#Zone Equipment Lists>,<Number of Zone Equipment Lists>
 #Zone Equipment Lists,5
! <Zone Equipment List>,<Zone Equipment List Count>,<Zone Equipment List Name>,<Zone Name>,<Number of Components>
! <Zone Equipment Component>,<Component Count>,<Component Type>,<Component Name>,<Zone Name>,<Heating Priority>,<Cooling Priority>
 Zone Equipment List,2,CORE_ZN ZN EQUIPMENT LIST,CORE_ZN ZN,1
   Zone Equipment Component,1,ZONEHVAC:PACKAGEDTERMINALHEATPUMP,PTHP 1,CORE_ZN ZN,1,1
 Zone Equipment List,3,PERIMETER_ZN_1 ZN EQUIPMENT LIST,PERIMETER_ZN_1 ZN,1
   Zone Equipment Component,1,ZONEHVAC:IDEALLOADSAIRSYSTEM,PERIMETER_ZN_1 ZN1AIR,PERIMETER_ZN_1 ZN,1,1
 Zone Equipment List,4,PERIMETER_ZN_2 ZN EQUIPMENT LIST,PERIMETER_ZN_2 ZN,1
   Zone Equipment Component,1,ZONEHVAC:PACKAGEDTERMINALHEATPUMP,PTHP 3,PERIMETER_ZN_2 ZN,1,1
 Zone Equipment List,5,PERIMETER_ZN_3 ZN EQUIPMENT LIST,PERIMETER_ZN_3 ZN,1
   Zone Equipment Component,1,ZONEHVAC:PACKAGEDTERMINALHEATPUMP,PTHP 4,PERIMETER_ZN_3 ZN,1,1
 Zone Equipment List,6,PERIMETER_ZN_4 ZN EQUIPMENT LIST,PERIMETER_ZN_4 ZN,1
   Zone Equipment Component,1,ZONEHVAC:PACKAGEDTERMINALHEATPUMP,PTHP 5,PERIMETER_ZN_4 ZN,1,1
! ===============================================================
! <#AirLoopHVACs>,<Number of AirLoopHVACs>
 #AirLoopHVACs,0
! <AirLoopHVAC>,<Air Loop Name>,<# Return Nodes>,<# Supply Nodes>,<# Zones Cooled>,<# Zones Heated>,<Outdoor Air Used>
! <AirLoop Return Connections>,<Connection Count>,<AirLoopHVAC Name>,<Zn Eqp Return Node #>,<Zn Eqp Return Node Name>,<AirLoop Return Node #>,<Air Loop Return Node Name>
! <AirLoop Supply Connections>,<Connection Count>,<AirLoopHVAC Name>,<Zn Eqp Supply Node #>,<Zn Eqp Supply Node Name>,<AirLoop Supply Node #>,<Air Loop Supply Node Name>
! <Cooled Zone Info>,<Cooled Zone Count>,<Cooled Zone Name>,<Cooled Zone Inlet Node #>,<Cooled Zone Inlet Node Name>,<AirLoopHVAC Name>
! <Heated Zone Info>,<Heated Zone Count>,<Heated Zone Name>,<Heated Zone Inlet Node #>,<Heated Zone Inlet Node Name>,<AirLoopHVAC Name>
! <Outdoor Air Connections>,<OA Inlet Node #>,<OA Return Air Inlet Node Name>,<OA Outlet Node #>,<OA Mixed Air Outlet Node Name>,<AirLoopHVAC Name>
! <AirLoopHVAC Connector>,<Connector Type>,<Connector Name>,<Loop Name>,<Loop Type>,<Number of Inlets/Outlets>
! <AirLoopHVAC Connector Branches>,<Connector Node Count>,<Connector Type>,<Connector Name>,<Inlet Branch>,<Outlet Branch>,<Loop Name>,<Loop Type>
! <AirLoopHVAC Connector Nodes>,<Connector Node Count>,<Connector Type>,<Connector Name>,<Inlet Node>,<Outlet Node>,<Loop Name>,<Loop Type>
! ===============================================================
! <#Parent Node Connections>,<Number of Parent Node Connections>
 #Parent Node Connections,31
! <Parent Node Connection>,<Node Name>,<Node ObjectType>,<Node ObjectName>,<Node ConnectionType>,<Node FluidStream>
 Parent Node Connection,NODE 52,BRANCH,MAIN SERVICE WATER LOOP SUPPLY INLET BRANCH,Inlet,1
 Parent Node Connection,NODE 58,BRANCH,MAIN SERVICE WATER LOOP SUPPLY INLET BRANCH,Outlet,1
 Parent Node Connection,NODE 54,BRANCH,MAIN SERVICE WATER LOOP SUPPLY BRANCH 1,Inlet,1
 Parent Node Connection,NODE 59,BRANCH,MAIN SERVICE WATER LOOP SUPPLY BRANCH 1,Outlet,1
 Parent Node Connection,NODE 60,BRANCH,MAIN SERVICE WATER LOOP SUPPLY BRANCH 2,Inlet,1
 Parent Node Connection,NODE 61,BRANCH,MAIN SERVICE WATER LOOP SUPPLY BRANCH 2,Outlet,1
 Parent Node Connection,NODE 63,BRANCH,MAIN SERVICE WATER LOOP SUPPLY OUTLET BRANCH,Inlet,1
 Parent Node Connection,NODE 53,BRANCH,MAIN SERVICE WATER LOOP SUPPLY OUTLET BRANCH,Outlet,1
 Parent Node Connection,NODE 55,BRANCH,MAIN SERVICE WATER LOOP DEMAND INLET BRANCH,Inlet,1
 Parent Node Connection,NODE 64,BRANCH,MAIN SERVICE WATER LOOP DEMAND INLET BRANCH,Outlet,1
 Parent Node Connection,NODE 57,BRANCH,MAIN SERVICE WATER LOOP DEMAND BRANCH 1,Inlet,1
 Parent Node Connection,NODE 62,BRANCH,MAIN SERVICE WATER LOOP DEMAND BRANCH 1,Outlet,1
 Parent Node Connection,NODE 66,BRANCH,MAIN SERVICE WATER LOOP DEMAND BRANCH 2,Inlet,1
 Parent Node Connection,NODE 67,BRANCH,MAIN SERVICE WATER LOOP DEMAND BRANCH 2,Outlet,1
 Parent Node Connection,MAIN SERVICE WATER LOOP DEMAND BYPASS PIPE INLET NODE,BRANCH,MAIN SERVICE WATER LOOP DEMAND BYPASS BRANCH,Inlet,1
 Parent Node Connection,MAIN SERVICE WATER LOOP DEMAND BYPASS PIPE OUTLET NODE,BRANCH,MAIN SERVICE WATER LOOP DEMAND BYPASS BRANCH,Outlet,1
 Parent Node Connection,NODE 65,BRANCH,MAIN SERVICE WATER LOOP DEMAND OUTLET BRANCH,Inlet,1
 Parent Node Connection,NODE 56,BRANCH,MAIN SERVICE WATER LOOP DEMAND OUTLET BRANCH,Outlet,1
 Parent Node Connection,NODE 52,PLANTLOOP,MAIN SERVICE WATER LOOP,Inlet,1
 Parent Node Connection,NODE 53,PLANTLOOP,MAIN SERVICE WATER LOOP,Outlet,1
 Parent Node Connection,NODE 55,PLANTLOOP,MAIN SERVICE WATER LOOP,Inlet,1
 Parent Node Connection,NODE 56,PLANTLOOP,MAIN SERVICE WATER LOOP,Outlet,1
 Parent Node Connection,NODE 53,PLANTLOOP,MAIN SERVICE WATER LOOP,Sensor,1
 Parent Node Connection,NODE 9,ZONEHVAC:PACKAGEDTERMINALHEATPUMP,PTHP 1,Inlet,1
 Parent Node Connection,NODE 10,ZONEHVAC:PACKAGEDTERMINALHEATPUMP,PTHP 1,Outlet,1
 Parent Node Connection,NODE 13,ZONEHVAC:PACKAGEDTERMINALHEATPUMP,PTHP 3,Inlet,1
 Parent Node Connection,NODE 14,ZONEHVAC:PACKAGEDTERMINALHEATPUMP,PTHP 3,Outlet,1
 Parent Node Connection,NODE 15,ZONEHVAC:PACKAGEDTERMINALHEATPUMP,PTHP 4,Inlet,1
 Parent Node Connection,NODE 16,ZONEHVAC:PACKAGEDTERMINALHEATPUMP,PTHP 4,Outlet,1
 Parent Node Connection,NODE 17,ZONEHVAC:PACKAGEDTERMINALHEATPUMP,PTHP 5,Inlet,1
 Parent Node Connection,NODE 18,ZONEHVAC:PACKAGEDTERMINALHEATPUMP,PTHP 5,Outlet,1
! ===============================================================
! <#Non-Parent Node Connections>,<Number of Non-Parent Node Connections>
 #Non-Parent Node Connections,110
! <Non-Parent Node Connection>,<Node Name>,<Node ObjectType>,<Node ObjectName>,<Node ConnectionType>,<Node FluidStream>
 Non-Parent Node Connection,NODE 6,ZONEHVAC:EQUIPMENTCONNECTIONS,CORE_ZN ZN,ZoneNode,1
 Non-Parent Node Connection,NODE 10,ZONEHVAC:EQUIPMENTCONNECTIONS,CORE_ZN ZN,ZoneInlet,1
 Non-Parent Node Connection,NODE 9,ZONEHVAC:EQUIPMENTCONNECTIONS,CORE_ZN ZN,ZoneExhaust,1
 Non-Parent Node Connection,CORE_ZN ZN RETURN AIR NODE,ZONEHVAC:EQUIPMENTCONNECTIONS,CORE_ZN ZN,ZoneReturn,1
 Non-Parent Node Connection,NODE 1,ZONEHVAC:EQUIPMENTCONNECTIONS,PERIMETER_ZN_1 ZN,ZoneNode,1
 Non-Parent Node Connection,NODE 8,ZONEHVAC:EQUIPMENTCONNECTIONS,PERIMETER_ZN_1 ZN,ZoneInlet,1
 Non-Parent Node Connection,NODE 7,ZONEHVAC:EQUIPMENTCONNECTIONS,PERIMETER_ZN_1 ZN,ZoneExhaust,1
 Non-Parent Node Connection,PERIMETER_ZN_1 ZN RETURN AIR NODE,ZONEHVAC:EQUIPMENTCONNECTIONS,PERIMETER_ZN_1 ZN,ZoneReturn,1
 Non-Parent Node Connection,NODE 3,ZONEHVAC:EQUIPMENTCONNECTIONS,PERIMETER_ZN_2 ZN,ZoneNode,1
 Non-Parent Node Connection,NODE 14,ZONEHVAC:EQUIPMENTCONNECTIONS,PERIMETER_ZN_2 ZN,ZoneInlet,1
 Non-Parent Node Connection,NODE 13,ZONEHVAC:EQUIPMENTCONNECTIONS,PERIMETER_ZN_2 ZN,ZoneExhaust,1
 Non-Parent Node Connection,PERIMETER_ZN_2 ZN RETURN AIR NODE,ZONEHVAC:EQUIPMENTCONNECTIONS,PERIMETER_ZN_2 ZN,ZoneReturn,1
 Non-Parent Node Connection,NODE 4,ZONEHVAC:EQUIPMENTCONNECTIONS,PERIMETER_ZN_3 ZN,ZoneNode,1
 Non-Parent Node Connection,NODE 16,ZONEHVAC:EQUIPMENTCONNECTIONS,PERIMETER_ZN_3 ZN,ZoneInlet,1
 Non-Parent Node Connection,NODE 15,ZONEHVAC:EQUIPMENTCONNECTIONS,PERIMETER_ZN_3 ZN,ZoneExhaust,1
 Non-Parent Node Connection,PERIMETER_ZN_3 ZN RETURN AIR NODE,ZONEHVAC:EQUIPMENTCONNECTIONS,PERIMETER_ZN_3 ZN,ZoneReturn,1
 Non-Parent Node Connection,NODE 5,ZONEHVAC:EQUIPMENTCONNECTIONS,PERIMETER_ZN_4 ZN,ZoneNode,1
 Non-Parent Node Connection,NODE 18,ZONEHVAC:EQUIPMENTCONNECTIONS,PERIMETER_ZN_4 ZN,ZoneInlet,1
 Non-Parent Node Connection,NODE 17,ZONEHVAC:EQUIPMENTCONNECTIONS,PERIMETER_ZN_4 ZN,ZoneExhaust,1
 Non-Parent Node Connection,PERIMETER_ZN_4 ZN RETURN AIR NODE,ZONEHVAC:EQUIPMENTCONNECTIONS,PERIMETER_ZN_4 ZN,ZoneReturn,1
 Non-Parent Node Connection,NODE 54,WATERHEATER:MIXED,40.0GAL ELECTRICITY WATER HEATER - 40KBTU/HR 1.0 THERM EFF,Inlet,1
 Non-Parent Node Connection,NODE 59,WATERHEATER:MIXED,40.0GAL ELECTRICITY WATER HEATER - 40KBTU/HR 1.0 THERM EFF,Outlet,1
 Non-Parent Node Connection,PTHP 1 OA NODE,OUTDOORAIR:NODELIST,OutdoorAir:NodeList,OutdoorAir,1
 Non-Parent Node Connection,PTHP 3 OA NODE,OUTDOORAIR:NODELIST,OutdoorAir:NodeList,OutdoorAir,2
 Non-Parent Node Connection,PTHP 4 OA NODE,OUTDOORAIR:NODELIST,OutdoorAir:NodeList,OutdoorAir,3
 Non-Parent Node Connection,PTHP 5 OA NODE,OUTDOORAIR:NODELIST,OutdoorAir:NodeList,OutdoorAir,4
 Non-Parent Node Connection,MODEL OUTDOOR AIR NODE,OUTDOORAIR:NODE,OutdoorAir:Node,OutdoorAir,5
 Non-Parent Node Connection,NODE 53,SETPOINTMANAGER:SCHEDULED,SERVICE HOT WATER SETPOINT MANAGER,Setpoint,1
 Non-Parent Node Connection,NODE 60,PIPE:ADIABATIC,PIPE ADIABATIC 1,Inlet,1
 Non-Parent Node Connection,NODE 61,PIPE:ADIABATIC,PIPE ADIABATIC 1,Outlet,1
 Non-Parent Node Connection,NODE 63,PIPE:ADIABATIC,PIPE ADIABATIC 3,Inlet,1
 Non-Parent Node Connection,NODE 53,PIPE:ADIABATIC,PIPE ADIABATIC 3,Outlet,1
 Non-Parent Node Connection,NODE 55,PIPE:ADIABATIC,PIPE ADIABATIC 4,Inlet,1
 Non-Parent Node Connection,NODE 64,PIPE:ADIABATIC,PIPE ADIABATIC 4,Outlet,1
 Non-Parent Node Connection,NODE 57,PIPE:ADIABATIC,PIPE ADIABATIC 2,Inlet,1
 Non-Parent Node Connection,NODE 62,PIPE:ADIABATIC,PIPE ADIABATIC 2,Outlet,1
 Non-Parent Node Connection,MAIN SERVICE WATER LOOP DEMAND BYPASS PIPE INLET NODE,PIPE:ADIABATIC,MAIN SERVICE WATER LOOP DEMAND BYPASS PIPE,Inlet,1
 Non-Parent Node Connection,MAIN SERVICE WATER LOOP DEMAND BYPASS PIPE OUTLET NODE,PIPE:ADIABATIC,MAIN SERVICE WATER LOOP DEMAND BYPASS PIPE,Outlet,1
 Non-Parent Node Connection,NODE 65,PIPE:ADIABATIC,PIPE ADIABATIC 5,Inlet,1
 Non-Parent Node Connection,NODE 56,PIPE:ADIABATIC,PIPE ADIABATIC 5,Outlet,1
 Non-Parent Node Connection,NODE 64,CONNECTOR:SPLITTER,MAIN SERVICE WATER LOOP DEMAND SPLITTER,Inlet,1
 Non-Parent Node Connection,NODE 57,CONNECTOR:SPLITTER,MAIN SERVICE WATER LOOP DEMAND SPLITTER,Outlet,1
 Non-Parent Node Connection,NODE 66,CONNECTOR:SPLITTER,MAIN SERVICE WATER LOOP DEMAND SPLITTER,Outlet,1
 Non-Parent Node Connection,MAIN SERVICE WATER LOOP DEMAND BYPASS PIPE INLET NODE,CONNECTOR:SPLITTER,MAIN SERVICE WATER LOOP DEMAND SPLITTER,Outlet,1
 Non-Parent Node Connection,NODE 65,CONNECTOR:MIXER,MAIN SERVICE WATER LOOP DEMAND MIXER,Outlet,1
 Non-Parent Node Connection,NODE 62,CONNECTOR:MIXER,MAIN SERVICE WATER LOOP DEMAND MIXER,Inlet,1
 Non-Parent Node Connection,NODE 67,CONNECTOR:MIXER,MAIN SERVICE WATER LOOP DEMAND MIXER,Inlet,1
 Non-Parent Node Connection,MAIN SERVICE WATER LOOP DEMAND BYPASS PIPE OUTLET NODE,CONNECTOR:MIXER,MAIN SERVICE WATER LOOP DEMAND MIXER,Inlet,1
 Non-Parent Node Connection,NODE 58,CONNECTOR:SPLITTER,MAIN SERVICE WATER LOOP SUPPLY SPLITTER,Inlet,1
 Non-Parent Node Connection,NODE 54,CONNECTOR:SPLITTER,MAIN SERVICE WATER LOOP SUPPLY SPLITTER,Outlet,1
 Non-Parent Node Connection,NODE 60,CONNECTOR:SPLITTER,MAIN SERVICE WATER LOOP SUPPLY SPLITTER,Outlet,1
 Non-Parent Node Connection,NODE 63,CONNECTOR:MIXER,MAIN SERVICE WATER LOOP SUPPLY MIXER,Outlet,1
 Non-Parent Node Connection,NODE 59,CONNECTOR:MIXER,MAIN SERVICE WATER LOOP SUPPLY MIXER,Inlet,1
 Non-Parent Node Connection,NODE 61,CONNECTOR:MIXER,MAIN SERVICE WATER LOOP SUPPLY MIXER,Inlet,1
 Non-Parent Node Connection,NODE 66,WATERUSE:CONNECTIONS,WATER USE CONNECTIONS 1,Inlet,1
 Non-Parent Node Connection,NODE 67,WATERUSE:CONNECTIONS,WATER USE CONNECTIONS 1,Outlet,1
 Non-Parent Node Connection,PTHP 1 MIXED AIR NODE,OUTDOORAIR:MIXER,PTHP 1 OA MIXER,Outlet,1
 Non-Parent Node Connection,PTHP 1 OA NODE,OUTDOORAIR:MIXER,PTHP 1 OA MIXER,Inlet,1
 Non-Parent Node Connection,PTHP 1 RELIEF AIR NODE,OUTDOORAIR:MIXER,PTHP 1 OA MIXER,ReliefAir,1
 Non-Parent Node Connection,NODE 9,OUTDOORAIR:MIXER,PTHP 1 OA MIXER,Inlet,1
 Non-Parent Node Connection,PTHP 3 MIXED AIR NODE,OUTDOORAIR:MIXER,PTHP 3 OA MIXER,Outlet,1
 Non-Parent Node Connection,PTHP 3 OA NODE,OUTDOORAIR:MIXER,PTHP 3 OA MIXER,Inlet,1
 Non-Parent Node Connection,PTHP 3 RELIEF AIR NODE,OUTDOORAIR:MIXER,PTHP 3 OA MIXER,ReliefAir,1
 Non-Parent Node Connection,NODE 13,OUTDOORAIR:MIXER,PTHP 3 OA MIXER,Inlet,1
 Non-Parent Node Connection,PTHP 4 MIXED AIR NODE,OUTDOORAIR:MIXER,PTHP 4 OA MIXER,Outlet,1
 Non-Parent Node Connection,PTHP 4 OA NODE,OUTDOORAIR:MIXER,PTHP 4 OA MIXER,Inlet,1
 Non-Parent Node Connection,PTHP 4 RELIEF AIR NODE,OUTDOORAIR:MIXER,PTHP 4 OA MIXER,ReliefAir,1
 Non-Parent Node Connection,NODE 15,OUTDOORAIR:MIXER,PTHP 4 OA MIXER,Inlet,1
 Non-Parent Node Connection,PTHP 5 MIXED AIR NODE,OUTDOORAIR:MIXER,PTHP 5 OA MIXER,Outlet,1
 Non-Parent Node Connection,PTHP 5 OA NODE,OUTDOORAIR:MIXER,PTHP 5 OA MIXER,Inlet,1
 Non-Parent Node Connection,PTHP 5 RELIEF AIR NODE,OUTDOORAIR:MIXER,PTHP 5 OA MIXER,ReliefAir,1
 Non-Parent Node Connection,NODE 17,OUTDOORAIR:MIXER,PTHP 5 OA MIXER,Inlet,1
 Non-Parent Node Connection,PTHP 1 HEATING COIL OUTLET NODE,FAN:CONSTANTVOLUME,PTHP CV FAN 1,Inlet,1
 Non-Parent Node Connection,PTHP 1 FAN OUTLET NODE,FAN:CONSTANTVOLUME,PTHP CV FAN 1,Outlet,1
 Non-Parent Node Connection,PTHP 3 HEATING COIL OUTLET NODE,FAN:CONSTANTVOLUME,PTHP CV FAN 3,Inlet,1
 Non-Parent Node Connection,PTHP 3 FAN OUTLET NODE,FAN:CONSTANTVOLUME,PTHP CV FAN 3,Outlet,1
 Non-Parent Node Connection,PTHP 4 HEATING COIL OUTLET NODE,FAN:CONSTANTVOLUME,PTHP CV FAN 4,Inlet,1
 Non-Parent Node Connection,PTHP 4 FAN OUTLET NODE,FAN:CONSTANTVOLUME,PTHP CV FAN 4,Outlet,1
 Non-Parent Node Connection,PTHP 5 HEATING COIL OUTLET NODE,FAN:CONSTANTVOLUME,PTHP CV FAN 5,Inlet,1
 Non-Parent Node Connection,PTHP 5 FAN OUTLET NODE,FAN:CONSTANTVOLUME,PTHP CV FAN 5,Outlet,1
 Non-Parent Node Connection,PTHP 1 MIXED AIR NODE,COIL:COOLING:DX:SINGLESPEED,PTHP 1 SPD DX CLG COIL 1,Inlet,1
 Non-Parent Node Connection,PTHP 1 COOLING COIL OUTLET NODE,COIL:COOLING:DX:SINGLESPEED,PTHP 1 SPD DX CLG COIL 1,Outlet,1
 Non-Parent Node Connection,PTHP 3 MIXED AIR NODE,COIL:COOLING:DX:SINGLESPEED,PTHP 1 SPD DX CLG COIL 3,Inlet,1
 Non-Parent Node Connection,PTHP 3 COOLING COIL OUTLET NODE,COIL:COOLING:DX:SINGLESPEED,PTHP 1 SPD DX CLG COIL 3,Outlet,1
 Non-Parent Node Connection,PTHP 4 MIXED AIR NODE,COIL:COOLING:DX:SINGLESPEED,PTHP 1 SPD DX CLG COIL 4,Inlet,1
 Non-Parent Node Connection,PTHP 4 COOLING COIL OUTLET NODE,COIL:COOLING:DX:SINGLESPEED,PTHP 1 SPD DX CLG COIL 4,Outlet,1
 Non-Parent Node Connection,PTHP 5 MIXED AIR NODE,COIL:COOLING:DX:SINGLESPEED,PTHP 1 SPD DX CLG COIL 5,Inlet,1
 Non-Parent Node Connection,PTHP 5 COOLING COIL OUTLET NODE,COIL:COOLING:DX:SINGLESPEED,PTHP 1 SPD DX CLG COIL 5,Outlet,1
 Non-Parent Node Connection,PTHP 1 COOLING COIL OUTLET NODE,COIL:HEATING:DX:SINGLESPEED,PTHP 1 SPD DX HTG COIL 1,Inlet,1
 Non-Parent Node Connection,PTHP 1 HEATING COIL OUTLET NODE,COIL:HEATING:DX:SINGLESPEED,PTHP 1 SPD DX HTG COIL 1,Outlet,1
 Non-Parent Node Connection,PTHP 3 COOLING COIL OUTLET NODE,COIL:HEATING:DX:SINGLESPEED,PTHP 1 SPD DX HTG COIL 3,Inlet,1
 Non-Parent Node Connection,PTHP 3 HEATING COIL OUTLET NODE,COIL:HEATING:DX:SINGLESPEED,PTHP 1 SPD DX HTG COIL 3,Outlet,1
 Non-Parent Node Connection,PTHP 4 COOLING COIL OUTLET NODE,COIL:HEATING:DX:SINGLESPEED,PTHP 1 SPD DX HTG COIL 4,Inlet,1
 Non-Parent Node Connection,PTHP 4 HEATING COIL OUTLET NODE,COIL:HEATING:DX:SINGLESPEED,PTHP 1 SPD DX HTG COIL 4,Outlet,1
 Non-Parent Node Connection,PTHP 5 COOLING COIL OUTLET NODE,COIL:HEATING:DX:SINGLESPEED,PTHP 1 SPD DX HTG COIL 5,Inlet,1
 Non-Parent Node Connection,PTHP 5 HEATING COIL OUTLET NODE,COIL:HEATING:DX:SINGLESPEED,PTHP 1 SPD DX HTG COIL 5,Outlet,1
 Non-Parent Node Connection,PTHP 1 FAN OUTLET NODE,COIL:HEATING:ELECTRIC,PTHP ELEC HTG BACKUP COIL 1,Inlet,1
 Non-Parent Node Connection,NODE 10,COIL:HEATING:ELECTRIC,PTHP ELEC HTG BACKUP COIL 1,Outlet,1
 Non-Parent Node Connection,PTHP 3 FAN OUTLET NODE,COIL:HEATING:ELECTRIC,PTHP ELEC HTG BACKUP COIL 3,Inlet,1
 Non-Parent Node Connection,NODE 14,COIL:HEATING:ELECTRIC,PTHP ELEC HTG BACKUP COIL 3,Outlet,1
 Non-Parent Node Connection,PTHP 4 FAN OUTLET NODE,COIL:HEATING:ELECTRIC,PTHP ELEC HTG BACKUP COIL 4,Inlet,1
 Non-Parent Node Connection,NODE 16,COIL:HEATING:ELECTRIC,PTHP ELEC HTG BACKUP COIL 4,Outlet,1
 Non-Parent Node Connection,PTHP 5 FAN OUTLET NODE,COIL:HEATING:ELECTRIC,PTHP ELEC HTG BACKUP COIL 5,Inlet,1
 Non-Parent Node Connection,NODE 18,COIL:HEATING:ELECTRIC,PTHP ELEC HTG BACKUP COIL 5,Outlet,1
 Non-Parent Node Connection,NODE 8,ZONEHVAC:IDEALLOADSAIRSYSTEM,PERIMETER_ZN_1 ZN1AIR,Outlet,1
 Non-Parent Node Connection,NODE 7,ZONEHVAC:IDEALLOADSAIRSYSTEM,PERIMETER_ZN_1 ZN1AIR,Inlet,1
 Non-Parent Node Connection,PERIMETER_ZN_1 ZN1AIR OUTDOOR AIR INLET NODE,ZONEHVAC:IDEALLOADSAIRSYSTEM,PERIMETER_ZN_1 ZN1AIR,Outlet,1
 Non-Parent Node Connection,PERIMETER_ZN_1 ZN1AIR OUTDOOR AIR INLET NODE,OUTDOORAIR:NODE,OutdoorAir:Node,OutdoorAir,6
 Non-Parent Node Connection,NODE 52,PUMP:CONSTANTSPEED,SERVICE WATER LOOP PUMP,Inlet,1
 Non-Parent Node Connection,NODE 58,PUMP:CONSTANTSPEED,SERVICE WATER LOOP PUMP,Outlet,1
