Program Version,EnergyPlus, Version 8.9.0-eba93e8e1b, YMD=2018.07.10 14:15
! <Version>, Version ID
 Version, 8.9
! <Timesteps per Hour>, #TimeSteps, Minutes per TimeStep {minutes}
 Timesteps per Hour,  6, 10
! <System Convergence Limits>, Minimum System TimeStep {minutes}, Max HVAC Iterations, Minimum Plant Iterations, Maximum Plant Iterations
 System Convergence Limits, 1, 20, 2, 8
! <Simulation Control>, Do Zone Sizing, Do System Sizing, Do Plant Sizing, Do Design Days, Do Weather Simulation, Do HVAC Sizing Simulation
 Simulation Control, Yes, Yes, Yes, No, Yes, No
! <Output Reporting Tolerances>, Tolerance for Time Heating Setpoint Not Met, Tolerance for Zone Cooling Setpoint Not Met Time
 Output Reporting Tolerances, 0.200, 0.200, 
! <Site:GroundTemperature:BuildingSurface>,Jan{C},Feb{C},Mar{C},Apr{C},May{C},Jun{C},Jul{C},Aug{C},Sep{C},Oct{C},Nov{C},Dec{C}
 Site:GroundTemperature:BuildingSurface,  20.22,  20.19,  20.25,  20.40,  20.56,  22.91,  23.31,  23.37,  23.36,  21.02,  20.62,  20.37
! <Site:GroundTemperature:FCfactorMethod>,Jan{C},Feb{C},Mar{C},Apr{C},May{C},Jun{C},Jul{C},Aug{C},Sep{C},Oct{C},Nov{C},Dec{C}
 Site:GroundTemperature:FCfactorMethod,  -1.89,  -3.06,  -0.99,   2.23,  10.68,  17.20,  21.60,  22.94,  20.66,  15.60,   8.83,   2.56
! <Site:GroundTemperature:Shallow>,Jan{C},Feb{C},Mar{C},Apr{C},May{C},Jun{C},Jul{C},Aug{C},Sep{C},Oct{C},Nov{C},Dec{C}
 Site:GroundTemperature:Shallow,  13.00,  13.00,  13.00,  13.00,  13.00,  13.00,  13.00,  13.00,  13.00,  13.00,  13.00,  13.00
! <Site:GroundTemperature:Deep>,Jan{C},Feb{C},Mar{C},Apr{C},May{C},Jun{C},Jul{C},Aug{C},Sep{C},Oct{C},Nov{C},Dec{C}
 Site:GroundTemperature:Deep,  16.00,  16.00,  16.00,  16.00,  16.00,  16.00,  16.00,  16.00,  16.00,  16.00,  16.00,  16.00
! <Site:GroundReflectance>,Jan{dimensionless},Feb{dimensionless},Mar{dimensionless},Apr{dimensionless},May{dimensionless},Jun{dimensionless},Jul{dimensionless},Aug{dimensionless},Sep{dimensionless},Oct{dimensionless},Nov{dimensionless},Dec{dimensionless}
 Site:GroundReflectance,  0.20,  0.20,  0.20,  0.20,  0.20,  0.20,  0.20,  0.20,  0.20,  0.20,  0.20,  0.20
! <Site:GroundReflectance:SnowModifier>, Normal, Daylighting {dimensionless}
 Site:GroundReflectance:SnowModifier,   1.000,   1.000
! <Site:GroundReflectance:Snow>,Jan{dimensionless},Feb{dimensionless},Mar{dimensionless},Apr{dimensionless},May{dimensionless},Jun{dimensionless},Jul{dimensionless},Aug{dimensionless},Sep{dimensionless},Oct{dimensionless},Nov{dimensionless},Dec{dimensionless}
 Site:GroundReflectance:Snow,  0.20,  0.20,  0.20,  0.20,  0.20,  0.20,  0.20,  0.20,  0.20,  0.20,  0.20,  0.20
! <Site:GroundReflectance:Snow:Daylighting>,Jan{dimensionless},Feb{dimensionless},Mar{dimensionless},Apr{dimensionless},May{dimensionless},Jun{dimensionless},Jul{dimensionless},Aug{dimensionless},Sep{dimensionless},Oct{dimensionless},Nov{dimensionless},Dec{dimensionless}
 Site:GroundReflectance:Snow:Daylighting,  0.20,  0.20,  0.20,  0.20,  0.20,  0.20,  0.20,  0.20,  0.20,  0.20,  0.20,  0.20
! <Environment:Weather Station>,Wind Sensor Height Above Ground {m},Wind Speed Profile Exponent {},Wind Speed Profile Boundary Layer Thickness {m},Air Temperature Sensor Height Above Ground {m},Wind Speed Modifier Coefficient-Internal,Temperature Modifier Coefficient-Internal
Environment:Weather Station,10.000,0.140,270.000,1.500,1.586,9.750E-003
! <Site:Location>, Location Name, Latitude {N+/S- Deg}, Longitude {E+/W- Deg},  Time Zone Number {GMT+/-}, Elevation {m},  Standard Pressure at Elevation {Pa}, Standard RhoAir at Elevation
Site:Location,Chicago Ohare Intl Ap IL USA TMY3 WMO#=725300,41.98,-87.92,-6.00,201.00,98934,1.1759
! <Building Information>, Building Name,North Axis {deg},Terrain,  Loads Convergence Tolerance Value,Temperature Convergence Tolerance Value,  Solar Distribution,Maximum Number of Warmup Days,Minimum Number of Warmup Days
 Building Information,-RetailStripmall-ASHRAE 169-2006-5A created: 2018-07-10 14:14:17 -0400,0.000,City,4.00000E-002,0.40000,FullExterior,25,6
! <Inside Convection Algorithm>, Algorithm {Simple | TARP | CeilingDiffuser | AdaptiveConvectionAlgorithm}
Inside Convection Algorithm,TARP
! <Outside Convection Algorithm>, Algorithm {SimpleCombined | TARP | MoWitt | DOE-2 | AdaptiveConvectionAlgorithm}
Outside Convection Algorithm,TARP
! <Sky Radiance Distribution>, Value {Anisotropic}
Sky Radiance Distribution,Anisotropic
! <Zone Air Solution Algorithm>, Value {ThirdOrderBackwardDifference | AnalyticalSolution | EulerMethod}
 Zone Air Solution Algorithm, ThirdOrderBackwardDifference
! <Zone Air Carbon Dioxide Balance Simulation>, Simulation {Yes/No}, Carbon Dioxide Concentration
 Zone Air Carbon Dioxide Balance Simulation, No,N/A
! <Zone Air Generic Contaminant Balance Simulation>, Simulation {Yes/No}, Generic Contaminant Concentration
 Zone Air Generic Contaminant Balance Simulation, No,N/A
! <Zone Air Mass Flow Balance Simulation>, Enforce Mass Balance, Adjust Zone Mixing, Adjust Zone Infiltration {AddInfiltration | AdjustInfiltration | None}, Infiltration Zones {MixingSourceZonesOnly | AllZones}
 Zone Air Mass Flow Balance Simulation, No,N/A,N/A,N/A
! <HVACSystemRootFindingAlgorithm>, Value {RegulaFalsi | Bisection | BisectionThenRegulaFalsi | RegulaFalsiThenBisection}
 HVACSystemRootFindingAlgorithm, RegulaFalsi
! <Environment:Site Atmospheric Variation>,Wind Speed Profile Exponent {},Wind Speed Profile Boundary Layer Thickness {m},Air Temperature Gradient Coefficient {K/m}
Environment:Site Atmospheric Variation,0.330,460.000,6.500000E-003
! <Surface Geometry>,Starting Corner,Vertex Input Direction,Coordinate System,Daylight Reference Point Coordinate System,Rectangular (Simple) Surface Coordinate System
 Surface Geometry,UpperLeftCorner,Counterclockwise,RelativeCoordinateSystem,RelativeCoordinateSystem,RelativeToZoneOrigin
! <Surface Heat Transfer Algorithm>, Value {CTF - ConductionTransferFunction | EMPD - MoisturePenetrationDepthConductionTransferFunction | CondFD - ConductionFiniteDifference | HAMT - CombinedHeatAndMoistureFiniteElement} - Description,Inside Surface Max Temperature Limit{C}, Surface Convection Coefficient Lower Limit {W/m2-K}, Surface Convection Coefficient Upper Limit {W/m2-K}
Surface Heat Transfer Algorithm, CTF - ConductionTransferFunction,200,0.10,1000.0
! <Shading Summary>, Number of Fixed Detached Shades, Number of Building Detached Shades, Number of Attached Shades
 Shading Summary,0,0,0
! <Zone Summary>, Number of Zones, Number of Zone Surfaces, Number of SubSurfaces
 Zone Summary,10,118,48
! <Zone Information>,Zone Name,North Axis {deg},Origin X-Coordinate {m},Origin Y-Coordinate {m},Origin Z-Coordinate {m},Centroid X-Coordinate {m},Centroid Y-Coordinate {m},Centroid Z-Coordinate {m},Type,Zone Multiplier,Zone List Multiplier,Minimum X {m},Maximum X {m},Minimum Y {m},Maximum Y {m},Minimum Z {m},Maximum Z {m},Ceiling Height {m},Volume {m3},Zone Inside Convection Algorithm {Simple-Detailed-CeilingDiffuser-TrombeWall},Zone Outside Convection Algorithm {Simple-Detailed-Tarp-MoWitt-DOE-2-BLAST}, Floor Area {m2},Exterior Gross Wall Area {m2},Exterior Net Wall Area {m2},Exterior Window Area {m2}, Number of Surfaces, Number of SubSurfaces, Number of Shading SubSurfaces,  Part of Total Building Area
 Zone Information, LGSTORE1 ZN,0.0,0.00,0.00,0.00,7.62,11.43,2.59,1,1,1,0.00,15.24,0.00,22.86,0.00,5.18,5.18,1804.64,TARP,TARP,348.39,276.30,247.76,20.75,6,8,0,Yes
 Zone Information, LGSTORE2 ZN,0.0,0.00,0.00,0.00,53.34,11.43,2.59,1,1,1,45.72,60.96,0.00,22.86,0.00,5.18,5.18,1804.64,TARP,TARP,348.39,157.89,129.43,20.70,6,8,0,Yes
 Zone Information, SMSTORE1 ZN,0.0,0.00,0.00,0.00,19.05,11.43,2.59,1,1,1,15.24,22.86,0.00,22.86,0.00,5.18,5.18,902.32,TARP,TARP,174.19,78.94,64.67,10.37,6,4,0,Yes
 Zone Information, SMSTORE2 ZN,0.0,0.00,0.00,0.00,26.67,11.43,2.59,1,1,1,22.86,30.48,0.00,22.86,0.00,5.18,5.18,902.32,TARP,TARP,174.19,78.94,64.71,10.35,6,4,0,Yes
 Zone Information, SMSTORE3 ZN,0.0,0.00,0.00,0.00,34.29,11.43,2.59,1,1,1,30.48,38.10,0.00,22.86,0.00,5.18,5.18,902.32,TARP,TARP,174.19,78.94,64.71,10.35,6,4,0,Yes
 Zone Information, SMSTORE4 ZN,0.0,0.00,0.00,0.00,41.91,11.43,2.59,1,1,1,38.10,45.72,0.00,22.86,0.00,5.18,5.18,902.32,TARP,TARP,174.19,78.94,64.71,10.35,6,4,0,Yes
 Zone Information, SMSTORE5 ZN,0.0,0.00,0.00,0.00,64.77,11.43,2.59,1,1,1,60.96,68.58,0.00,22.86,0.00,5.18,5.18,902.32,TARP,TARP,174.19,78.94,64.71,10.35,6,4,0,Yes
 Zone Information, SMSTORE6 ZN,0.0,0.00,0.00,0.00,72.39,11.43,2.59,1,1,1,68.58,76.20,0.00,22.86,0.00,5.18,5.18,902.32,TARP,TARP,174.19,78.94,64.71,10.35,6,4,0,Yes
 Zone Information, SMSTORE7 ZN,0.0,0.00,0.00,0.00,80.01,11.43,2.59,1,1,1,76.20,83.82,0.00,22.86,0.00,5.18,5.18,902.32,TARP,TARP,174.19,78.94,64.71,10.35,6,4,0,Yes
 Zone Information, SMSTORE8 ZN,0.0,0.00,0.00,0.00,87.63,11.43,2.59,1,1,1,83.82,91.44,0.00,22.86,0.00,5.18,5.18,902.32,TARP,TARP,174.19,197.36,183.13,10.35,6,4,0,Yes
! <Zone Internal Gains Nominal>,Zone Name, Floor Area {m2},# Occupants,Area per Occupant {m2/person},Occupant per Area {person/m2},Interior Lighting {W/m2},Electric Load {W/m2},Gas Load {W/m2},Other Load {W/m2},Hot Water Eq {W/m2},Steam Equipment {W/m2},Sum Loads per Area {W/m2},Outdoor Controlled Baseboard Heat
 Zone Internal Gains Nominal, LGSTORE1 ZN,348.39,30.0,11.613,8.611E-002,26.372,4.306,0.000,0.000,0.000,0.000,30.677,No
 Zone Internal Gains Nominal, LGSTORE2 ZN,348.39,30.0,11.613,8.611E-002,16.146,4.306,0.000,0.000,0.000,0.000,20.451,No
 Zone Internal Gains Nominal, SMSTORE1 ZN,174.19,15.0,11.613,8.611E-002,26.372,4.306,0.000,0.000,0.000,0.000,30.677,No
 Zone Internal Gains Nominal, SMSTORE2 ZN,174.19,15.0,11.613,8.611E-002,20.182,4.306,0.000,0.000,0.000,0.000,24.488,No
 Zone Internal Gains Nominal, SMSTORE3 ZN,174.19,15.0,11.613,8.611E-002,20.182,4.306,0.000,0.000,0.000,0.000,24.488,No
 Zone Internal Gains Nominal, SMSTORE4 ZN,174.19,15.0,11.613,8.611E-002,20.182,4.306,0.000,0.000,0.000,0.000,24.488,No
 Zone Internal Gains Nominal, SMSTORE5 ZN,174.19,15.0,11.613,8.611E-002,16.146,4.306,0.000,0.000,0.000,0.000,20.451,No
 Zone Internal Gains Nominal, SMSTORE6 ZN,174.19,15.0,11.613,8.611E-002,16.146,4.306,0.000,0.000,0.000,0.000,20.451,No
 Zone Internal Gains Nominal, SMSTORE7 ZN,174.19,15.0,11.613,8.611E-002,16.146,4.306,0.000,0.000,0.000,0.000,20.451,No
 Zone Internal Gains Nominal, SMSTORE8 ZN,174.19,15.0,11.613,8.611E-002,16.146,4.306,0.000,0.000,0.000,0.000,20.451,No
! <People Internal Gains Nominal>,Name,Schedule Name,Zone Name,Zone Floor Area {m2},# Zone Occupants,Number of People {},People/Floor Area {person/m2},Floor Area per person {m2/person},Fraction Radiant,Fraction Convected,Sensible Fraction Calculation,Activity level,ASHRAE 55 Warnings,Carbon Dioxide Generation Rate,Nominal Minimum Number of People,Nominal Maximum Number of People
 People Internal Gains Nominal, LGSTORE1 ZN STRIPMALL STRIP MALL - TYPE 1 PEOPLE,RETAILSTRIPMALL TYPE1_OCC_SCH,LGSTORE1 ZN,348.39,30.0,30.0,8.611E-002,11.613,0.300,0.700,AutoCalculate,HOTELSMALL ACTIVITY_SCH,No,3.8200E-008,0,30
 People Internal Gains Nominal, SMSTORE1 ZN STRIPMALL STRIP MALL - TYPE 1 PEOPLE,RETAILSTRIPMALL TYPE1_OCC_SCH,SMSTORE1 ZN,174.19,15.0,15.0,8.611E-002,11.613,0.300,0.700,AutoCalculate,HOTELSMALL ACTIVITY_SCH,No,3.8200E-008,0,15
 People Internal Gains Nominal, SMSTORE2 ZN STRIPMALL STRIP MALL - TYPE 2 PEOPLE,RETAILSTRIPMALL TYPE2_OCC_SCH,SMSTORE2 ZN,174.19,15.0,15.0,8.611E-002,11.613,0.300,0.700,AutoCalculate,HOTELSMALL ACTIVITY_SCH,No,3.8200E-008,0,15
 People Internal Gains Nominal, SMSTORE3 ZN STRIPMALL STRIP MALL - TYPE 2 PEOPLE,RETAILSTRIPMALL TYPE2_OCC_SCH,SMSTORE3 ZN,174.19,15.0,15.0,8.611E-002,11.613,0.300,0.700,AutoCalculate,HOTELSMALL ACTIVITY_SCH,No,3.8200E-008,0,15
 People Internal Gains Nominal, SMSTORE4 ZN STRIPMALL STRIP MALL - TYPE 2 PEOPLE,RETAILSTRIPMALL TYPE2_OCC_SCH,SMSTORE4 ZN,174.19,15.0,15.0,8.611E-002,11.613,0.300,0.700,AutoCalculate,HOTELSMALL ACTIVITY_SCH,No,3.8200E-008,0,15
 People Internal Gains Nominal, LGSTORE2 ZN STRIPMALL STRIP MALL - TYPE 3 PEOPLE,RETAILSTRIPMALL TYPE3_OCC_SCH,LGSTORE2 ZN,348.39,30.0,30.0,8.611E-002,11.613,0.300,0.700,AutoCalculate,HOTELSMALL ACTIVITY_SCH,No,3.8200E-008,0,30
 People Internal Gains Nominal, SMSTORE5 ZN STRIPMALL STRIP MALL - TYPE 3 PEOPLE,RETAILSTRIPMALL TYPE3_OCC_SCH,SMSTORE5 ZN,174.19,15.0,15.0,8.611E-002,11.613,0.300,0.700,AutoCalculate,HOTELSMALL ACTIVITY_SCH,No,3.8200E-008,0,15
 People Internal Gains Nominal, SMSTORE6 ZN STRIPMALL STRIP MALL - TYPE 3 PEOPLE,RETAILSTRIPMALL TYPE3_OCC_SCH,SMSTORE6 ZN,174.19,15.0,15.0,8.611E-002,11.613,0.300,0.700,AutoCalculate,HOTELSMALL ACTIVITY_SCH,No,3.8200E-008,0,15
 People Internal Gains Nominal, SMSTORE7 ZN STRIPMALL STRIP MALL - TYPE 3 PEOPLE,RETAILSTRIPMALL TYPE3_OCC_SCH,SMSTORE7 ZN,174.19,15.0,15.0,8.611E-002,11.613,0.300,0.700,AutoCalculate,HOTELSMALL ACTIVITY_SCH,No,3.8200E-008,0,15
 People Internal Gains Nominal, SMSTORE8 ZN STRIPMALL STRIP MALL - TYPE 3 PEOPLE,RETAILSTRIPMALL TYPE3_OCC_SCH,SMSTORE8 ZN,174.19,15.0,15.0,8.611E-002,11.613,0.300,0.700,AutoCalculate,HOTELSMALL ACTIVITY_SCH,No,3.8200E-008,0,15
! <Lights Internal Gains Nominal>,Name,Schedule Name,Zone Name,Zone Floor Area {m2},# Zone Occupants,Lighting Level {W},Lights/Floor Area {W/m2},Lights per person {W/person},Fraction Return Air,Fraction Radiant,Fraction Short Wave,Fraction Convected,Fraction Replaceable,End-Use Category,Nominal Minimum Lighting Level {W},Nominal Maximum Lighting Level {W}
 Lights Internal Gains Nominal, LGSTORE1 ZN STRIPMALL STRIP MALL - TYPE 1 ADDITIONAL LIGHTS,RETAILSTRIPMALL TYPE1_LIGHT_SCH,LGSTORE1 ZN,348.39,30.0,3562.500,10.226,118.750,0.000,0.700,0.200,0.100,1.000,General,0.000,3562.500
 Lights Internal Gains Nominal, SMSTORE1 ZN STRIPMALL STRIP MALL - TYPE 1 ADDITIONAL LIGHTS,RETAILSTRIPMALL TYPE1_LIGHT_SCH,SMSTORE1 ZN,174.19,15.0,1781.250,10.226,118.750,0.000,0.700,0.200,0.100,1.000,General,0.000,1781.250
 Lights Internal Gains Nominal, LGSTORE1 ZN STRIPMALL STRIP MALL - TYPE 1 LIGHTS,RETAILSTRIPMALL TYPE1_LIGHT_SCH,LGSTORE1 ZN,348.39,30.0,5625.000,16.146,187.500,0.000,0.700,0.200,0.100,1.000,General,0.000,5625.000
 Lights Internal Gains Nominal, SMSTORE1 ZN STRIPMALL STRIP MALL - TYPE 1 LIGHTS,RETAILSTRIPMALL TYPE1_LIGHT_SCH,SMSTORE1 ZN,174.19,15.0,2812.500,16.146,187.500,0.000,0.700,0.200,0.100,1.000,General,0.000,2812.500
 Lights Internal Gains Nominal, SMSTORE2 ZN STRIPMALL STRIP MALL - TYPE 2 ADDITIONAL LIGHTS,RETAILSTRIPMALL TYPE2_LIGHT_SCH,SMSTORE2 ZN,174.19,15.0,703.125,4.036,46.875,0.000,0.700,0.200,0.100,1.000,General,0.000,703.125
 Lights Internal Gains Nominal, SMSTORE3 ZN STRIPMALL STRIP MALL - TYPE 2 ADDITIONAL LIGHTS,RETAILSTRIPMALL TYPE2_LIGHT_SCH,SMSTORE3 ZN,174.19,15.0,703.125,4.036,46.875,0.000,0.700,0.200,0.100,1.000,General,0.000,703.125
 Lights Internal Gains Nominal, SMSTORE4 ZN STRIPMALL STRIP MALL - TYPE 2 ADDITIONAL LIGHTS,RETAILSTRIPMALL TYPE2_LIGHT_SCH,SMSTORE4 ZN,174.19,15.0,703.125,4.036,46.875,0.000,0.700,0.200,0.100,1.000,General,0.000,703.125
 Lights Internal Gains Nominal, SMSTORE2 ZN STRIPMALL STRIP MALL - TYPE 2 LIGHTS,RETAILSTRIPMALL TYPE2_LIGHT_SCH,SMSTORE2 ZN,174.19,15.0,2812.500,16.146,187.500,0.000,0.700,0.200,0.100,1.000,General,0.000,2812.500
 Lights Internal Gains Nominal, SMSTORE3 ZN STRIPMALL STRIP MALL - TYPE 2 LIGHTS,RETAILSTRIPMALL TYPE2_LIGHT_SCH,SMSTORE3 ZN,174.19,15.0,2812.500,16.146,187.500,0.000,0.700,0.200,0.100,1.000,General,0.000,2812.500
 Lights Internal Gains Nominal, SMSTORE4 ZN STRIPMALL STRIP MALL - TYPE 2 LIGHTS,RETAILSTRIPMALL TYPE2_LIGHT_SCH,SMSTORE4 ZN,174.19,15.0,2812.500,16.146,187.500,0.000,0.700,0.200,0.100,1.000,General,0.000,2812.500
 Lights Internal Gains Nominal, LGSTORE2 ZN STRIPMALL STRIP MALL - TYPE 3 LIGHTS,RETAILSTRIPMALL TYPE3_LIGHT_SCH,LGSTORE2 ZN,348.39,30.0,5625.000,16.146,187.500,0.000,0.700,0.200,0.100,1.000,General,0.000,5625.000
 Lights Internal Gains Nominal, SMSTORE5 ZN STRIPMALL STRIP MALL - TYPE 3 LIGHTS,RETAILSTRIPMALL TYPE3_LIGHT_SCH,SMSTORE5 ZN,174.19,15.0,2812.500,16.146,187.500,0.000,0.700,0.200,0.100,1.000,General,0.000,2812.500
 Lights Internal Gains Nominal, SMSTORE6 ZN STRIPMALL STRIP MALL - TYPE 3 LIGHTS,RETAILSTRIPMALL TYPE3_LIGHT_SCH,SMSTORE6 ZN,174.19,15.0,2812.500,16.146,187.500,0.000,0.700,0.200,0.100,1.000,General,0.000,2812.500
 Lights Internal Gains Nominal, SMSTORE7 ZN STRIPMALL STRIP MALL - TYPE 3 LIGHTS,RETAILSTRIPMALL TYPE3_LIGHT_SCH,SMSTORE7 ZN,174.19,15.0,2812.500,16.146,187.500,0.000,0.700,0.200,0.100,1.000,General,0.000,2812.500
 Lights Internal Gains Nominal, SMSTORE8 ZN STRIPMALL STRIP MALL - TYPE 3 LIGHTS,RETAILSTRIPMALL TYPE3_LIGHT_SCH,SMSTORE8 ZN,174.19,15.0,2812.500,16.146,187.500,0.000,0.700,0.200,0.100,1.000,General,0.000,2812.500
! <ElectricEquipment Internal Gains Nominal>,Name,Schedule Name,Zone Name,Zone Floor Area {m2},# Zone Occupants,Equipment Level {W},Equipment/Floor Area {W/m2},Equipment per person {W/person},Fraction Latent,Fraction Radiant,Fraction Lost,Fraction Convected,End-Use SubCategory,Nominal Minimum Equipment Level {W},Nominal Maximum Equipment Level {W}
 ElectricEquipment Internal Gains Nominal, LGSTORE1 ZN STRIPMALL STRIP MALL - TYPE 1 ELEC EQUIP,RETAILSTRIPMALL TYPE1_EQUIP_SCH,LGSTORE1 ZN,348.39,30.0,1500.000,4.306,50.000,0.000,0.500,0.000,0.500,General,0.000,1500.000
 ElectricEquipment Internal Gains Nominal, SMSTORE1 ZN STRIPMALL STRIP MALL - TYPE 1 ELEC EQUIP,RETAILSTRIPMALL TYPE1_EQUIP_SCH,SMSTORE1 ZN,174.19,15.0,750.000,4.306,50.000,0.000,0.500,0.000,0.500,General,0.000,750.000
 ElectricEquipment Internal Gains Nominal, SMSTORE2 ZN STRIPMALL STRIP MALL - TYPE 2 ELEC EQUIP,RETAILSTRIPMALL TYPE2_EQUIP_SCH,SMSTORE2 ZN,174.19,15.0,750.000,4.306,50.000,0.000,0.500,0.000,0.500,General,0.000,750.000
 ElectricEquipment Internal Gains Nominal, SMSTORE3 ZN STRIPMALL STRIP MALL - TYPE 2 ELEC EQUIP,RETAILSTRIPMALL TYPE2_EQUIP_SCH,SMSTORE3 ZN,174.19,15.0,750.000,4.306,50.000,0.000,0.500,0.000,0.500,General,0.000,750.000
 ElectricEquipment Internal Gains Nominal, SMSTORE4 ZN STRIPMALL STRIP MALL - TYPE 2 ELEC EQUIP,RETAILSTRIPMALL TYPE2_EQUIP_SCH,SMSTORE4 ZN,174.19,15.0,750.000,4.306,50.000,0.000,0.500,0.000,0.500,General,0.000,750.000
 ElectricEquipment Internal Gains Nominal, LGSTORE2 ZN STRIPMALL STRIP MALL - TYPE 3 ELEC EQUIP,RETAILSTRIPMALL TYPE3_EQUIP_SCH,LGSTORE2 ZN,348.39,30.0,1500.000,4.306,50.000,0.000,0.500,0.000,0.500,General,0.000,1500.000
 ElectricEquipment Internal Gains Nominal, SMSTORE5 ZN STRIPMALL STRIP MALL - TYPE 3 ELEC EQUIP,RETAILSTRIPMALL TYPE3_EQUIP_SCH,SMSTORE5 ZN,174.19,15.0,750.000,4.306,50.000,0.000,0.500,0.000,0.500,General,0.000,750.000
 ElectricEquipment Internal Gains Nominal, SMSTORE6 ZN STRIPMALL STRIP MALL - TYPE 3 ELEC EQUIP,RETAILSTRIPMALL TYPE3_EQUIP_SCH,SMSTORE6 ZN,174.19,15.0,750.000,4.306,50.000,0.000,0.500,0.000,0.500,General,0.000,750.000
 ElectricEquipment Internal Gains Nominal, SMSTORE7 ZN STRIPMALL STRIP MALL - TYPE 3 ELEC EQUIP,RETAILSTRIPMALL TYPE3_EQUIP_SCH,SMSTORE7 ZN,174.19,15.0,750.000,4.306,50.000,0.000,0.500,0.000,0.500,General,0.000,750.000
 ElectricEquipment Internal Gains Nominal, SMSTORE8 ZN STRIPMALL STRIP MALL - TYPE 3 ELEC EQUIP,RETAILSTRIPMALL TYPE3_EQUIP_SCH,SMSTORE8 ZN,174.19,15.0,750.000,4.306,50.000,0.000,0.500,0.000,0.500,General,0.000,750.000
! <Shadowing/Sun Position Calculations Annual Simulations>, Calculation Method, Value {days}, Allowable Number Figures in Shadow Overlap {}, Polygon Clipping Algorithm, Sky Diffuse Modeling Algorithm, External Shading Calculation Method, Output External Shading Calculation Results, Disable Self-Shading Within Shading Zone Groups, Disable Self-Shading From Shading Zone Groups to Other Zones
Shadowing/Sun Position Calculations Annual Simulations,AverageOverDaysInFrequency,20,15000,SutherlandHodgman,SimpleSkyDiffuseModeling,InternalCalculation,No,No,No
! <Water Heater Information>,Type,Name,Volume {m3},Maximum Capacity {W},Standard Rated Recovery Efficiency, Standard Rated Energy Factor
! <ZoneInfiltration Airflow Stats Nominal>,Name,Schedule Name,Zone Name, Zone Floor Area {m2}, # Zone Occupants,Design Volume Flow Rate {m3/s},Volume Flow Rate/Floor Area {m3/s/m2},Volume Flow Rate/Exterior Surface Area {m3/s/m2},ACH - Air Changes per Hour,Equation A - Constant Term Coefficient {},Equation B - Temperature Term Coefficient {1/C},Equation C - Velocity Term Coefficient {s/m}, Equation D - Velocity Squared Term Coefficient {s2/m2}
 ZoneInfiltration Airflow Stats Nominal, LGSTORE1 DOOR OPEN INFILTRATION,RETAILSTRIPMALL INFIL_DOOR_OPENING_SCH,LGSTORE1 ZN,348.39,30.0,0.389,1.116E-003,6.149E-004,0.776,1.000,0.000,0.000,0.000
 ZoneInfiltration Airflow Stats Nominal, LGSTORE1 INFILTRATION,RETAILSTRIPMALL TYPE1_INFIL_SCH,LGSTORE1 ZN,348.39,30.0,0.287,8.232E-004,4.535E-004,0.572,0.000,0.000,0.224,0.000
 ZoneInfiltration Airflow Stats Nominal, LGSTORE2 DOOR OPEN INFILTRATION,RETAILSTRIPMALL INFIL_DOOR_OPENING_SCH,LGSTORE2 ZN,348.39,30.0,0.389,1.116E-003,7.565E-004,0.776,1.000,0.000,0.000,0.000
 ZoneInfiltration Airflow Stats Nominal, LGSTORE2 INFILTRATION,RETAILSTRIPMALL TYPE3_INFIL_SCH,LGSTORE2 ZN,348.39,30.0,0.164,4.717E-004,3.197E-004,0.328,0.000,0.000,0.224,0.000
 ZoneInfiltration Airflow Stats Nominal, SMSTORE1 DOOR OPEN INFILTRATION,RETAILSTRIPMALL INFIL_DOOR_OPENING_SCH,SMSTORE1 ZN,174.19,15.0,0.222,1.276E-003,8.648E-004,0.887,1.000,0.000,0.000,0.000
 ZoneInfiltration Airflow Stats Nominal, SMSTORE1 INFILTRATION,RETAILSTRIPMALL TYPE1_INFIL_SCH,SMSTORE1 ZN,174.19,15.0,8.218E-002,4.718E-004,3.197E-004,0.328,0.000,0.000,0.224,0.000
 ZoneInfiltration Airflow Stats Nominal, SMSTORE2 DOOR OPEN INFILTRATION,RETAILSTRIPMALL INFIL_DOOR_OPENING_SCH,SMSTORE2 ZN,174.19,15.0,0.222,1.276E-003,8.649E-004,0.887,1.000,0.000,0.000,0.000
 ZoneInfiltration Airflow Stats Nominal, SMSTORE2 INFILTRATION,RETAILSTRIPMALL TYPE2_INFIL_SCH,SMSTORE2 ZN,174.19,15.0,8.217E-002,4.717E-004,3.197E-004,0.328,0.000,0.000,0.224,0.000
 ZoneInfiltration Airflow Stats Nominal, SMSTORE3 DOOR OPEN INFILTRATION,RETAILSTRIPMALL INFIL_DOOR_OPENING_SCH,SMSTORE3 ZN,174.19,15.0,0.222,1.276E-003,8.649E-004,0.887,1.000,0.000,0.000,0.000
 ZoneInfiltration Airflow Stats Nominal, SMSTORE3 INFILTRATION,RETAILSTRIPMALL TYPE2_INFIL_SCH,SMSTORE3 ZN,174.19,15.0,8.217E-002,4.717E-004,3.197E-004,0.328,0.000,0.000,0.224,0.000
 ZoneInfiltration Airflow Stats Nominal, SMSTORE4 DOOR OPEN INFILTRATION,RETAILSTRIPMALL INFIL_DOOR_OPENING_SCH,SMSTORE4 ZN,174.19,15.0,0.222,1.276E-003,8.649E-004,0.887,1.000,0.000,0.000,0.000
 ZoneInfiltration Airflow Stats Nominal, SMSTORE4 INFILTRATION,RETAILSTRIPMALL TYPE2_INFIL_SCH,SMSTORE4 ZN,174.19,15.0,8.217E-002,4.717E-004,3.197E-004,0.328,0.000,0.000,0.224,0.000
 ZoneInfiltration Airflow Stats Nominal, SMSTORE5 DOOR OPEN INFILTRATION,RETAILSTRIPMALL INFIL_DOOR_OPENING_SCH,SMSTORE5 ZN,174.19,15.0,0.222,1.276E-003,8.649E-004,0.887,1.000,0.000,0.000,0.000
 ZoneInfiltration Airflow Stats Nominal, SMSTORE5 INFILTRATION,RETAILSTRIPMALL TYPE3_INFIL_SCH,SMSTORE5 ZN,174.19,15.0,8.217E-002,4.717E-004,3.197E-004,0.328,0.000,0.000,0.224,0.000
 ZoneInfiltration Airflow Stats Nominal, SMSTORE6 DOOR OPEN INFILTRATION,RETAILSTRIPMALL INFIL_DOOR_OPENING_SCH,SMSTORE6 ZN,174.19,15.0,0.222,1.276E-003,8.649E-004,0.887,1.000,0.000,0.000,0.000
 ZoneInfiltration Airflow Stats Nominal, SMSTORE6 INFILTRATION,RETAILSTRIPMALL TYPE3_INFIL_SCH,SMSTORE6 ZN,174.19,15.0,8.217E-002,4.717E-004,3.197E-004,0.328,0.000,0.000,0.224,0.000
 ZoneInfiltration Airflow Stats Nominal, SMSTORE7 DOOR OPEN INFILTRATION,RETAILSTRIPMALL INFIL_DOOR_OPENING_SCH,SMSTORE7 ZN,174.19,15.0,0.222,1.276E-003,8.649E-004,0.887,1.000,0.000,0.000,0.000
 ZoneInfiltration Airflow Stats Nominal, SMSTORE7 INFILTRATION,RETAILSTRIPMALL TYPE3_INFIL_SCH,SMSTORE7 ZN,174.19,15.0,8.217E-002,4.717E-004,3.197E-004,0.328,0.000,0.000,0.224,0.000
 ZoneInfiltration Airflow Stats Nominal, SMSTORE8 DOOR OPEN INFILTRATION,RETAILSTRIPMALL INFIL_DOOR_OPENING_SCH,SMSTORE8 ZN,174.19,15.0,0.222,1.276E-003,5.921E-004,0.887,1.000,0.000,0.000,0.000
 ZoneInfiltration Airflow Stats Nominal, SMSTORE8 INFILTRATION,RETAILSTRIPMALL TYPE3_INFIL_SCH,SMSTORE8 ZN,174.19,15.0,0.204,1.174E-003,5.446E-004,0.816,0.000,0.000,0.224,0.000
! <AirFlow Model>, Simple
 AirFlow Model, Simple
! <RoomAir Model>, Zone Name, Mixing/Mundt/UCSDDV/UCSDCV/UCSDUFI/UCSDUFE/User Defined
RoomAir Model,LGSTORE1 ZN,Mixing/Well-Stirred
RoomAir Model,LGSTORE2 ZN,Mixing/Well-Stirred
RoomAir Model,SMSTORE1 ZN,Mixing/Well-Stirred
RoomAir Model,SMSTORE2 ZN,Mixing/Well-Stirred
RoomAir Model,SMSTORE3 ZN,Mixing/Well-Stirred
RoomAir Model,SMSTORE4 ZN,Mixing/Well-Stirred
RoomAir Model,SMSTORE5 ZN,Mixing/Well-Stirred
RoomAir Model,SMSTORE6 ZN,Mixing/Well-Stirred
RoomAir Model,SMSTORE7 ZN,Mixing/Well-Stirred
RoomAir Model,SMSTORE8 ZN,Mixing/Well-Stirred
! <AirflowNetwork Model:Control>, No Multizone or Distribution/Multizone with Distribution/Multizone without Distribution/Multizone with Distribution only during Fan Operation
AirflowNetwork Model:Control,NoMultizoneOrDistribution
! <Zone Volume Capacitance Multiplier>, Sensible Heat Capacity Multiplier, Moisture Capacity Multiplier, Carbon Dioxide Capacity Multiplier, Generic Contaminant Capacity Multiplier
Zone Volume Capacitance Multiplier,   1.000 ,   1.000,   1.000,   1.000
! <Load Timesteps in Zone Design Calculation Averaging Window>, Value
 Load Timesteps in Zone Design Calculation Averaging Window,    6
! <Heating Sizing Factor Information>, Sizing Factor ID, Value
 Heating Sizing Factor Information, Global,   1.2000    
 Heating Sizing Factor Information, Zone LGSTORE1 ZN,   1.2000    
 Heating Sizing Factor Information, Zone LGSTORE2 ZN,   1.2000    
 Heating Sizing Factor Information, Zone SMSTORE1 ZN,   1.2000    
 Heating Sizing Factor Information, Zone SMSTORE2 ZN,   1.2000    
 Heating Sizing Factor Information, Zone SMSTORE3 ZN,   1.2000    
 Heating Sizing Factor Information, Zone SMSTORE4 ZN,   1.2000    
 Heating Sizing Factor Information, Zone SMSTORE5 ZN,   1.2000    
 Heating Sizing Factor Information, Zone SMSTORE6 ZN,   1.2000    
 Heating Sizing Factor Information, Zone SMSTORE7 ZN,   1.2000    
 Heating Sizing Factor Information, Zone SMSTORE8 ZN,   1.2000    
! <Cooling Sizing Factor Information>, Sizing Factor ID, Value
 Cooling Sizing Factor Information, Global,   1.2000    
 Cooling Sizing Factor Information, Zone LGSTORE1 ZN,   1.2000    
 Cooling Sizing Factor Information, Zone LGSTORE2 ZN,   1.2000    
 Cooling Sizing Factor Information, Zone SMSTORE1 ZN,   1.2000    
 Cooling Sizing Factor Information, Zone SMSTORE2 ZN,   1.2000    
 Cooling Sizing Factor Information, Zone SMSTORE3 ZN,   1.2000    
 Cooling Sizing Factor Information, Zone SMSTORE4 ZN,   1.2000    
 Cooling Sizing Factor Information, Zone SMSTORE5 ZN,   1.2000    
 Cooling Sizing Factor Information, Zone SMSTORE6 ZN,   1.2000    
 Cooling Sizing Factor Information, Zone SMSTORE7 ZN,   1.2000    
 Cooling Sizing Factor Information, Zone SMSTORE8 ZN,   1.2000    
! <Zone Sizing Information>, Zone Name, Load Type, Calc Des Load {W}, User Des Load {W}, Calc Des Air Flow Rate {m3/s}, User Des Air Flow Rate {m3/s}, Design Day Name, Date/Time of Peak, Temperature at Peak {C}, Humidity Ratio at Peak {kgWater/kgDryAir}, Floor Area {m2}, # Occupants, Calc Outdoor Air Flow Rate {m3/s}, Calc DOAS Heat Addition Rate {W}
 Zone Sizing Information, LGSTORE1 ZN, Cooling, 24172.69066, 29007.22879, 1.81712, 2.18055, CHICAGO OHARE INTL AP ANN CLG .4% CONDNS DB=>MWB, 7/21 13:50:00, 33.21250, 1.49611E-002, 348.38640, 30.00000, 0.53094, 0.00000
 Zone Sizing Information, LGSTORE1 ZN, Heating, 37413.77030, 44896.52436, 1.65122, 1.98146, CHICAGO OHARE INTL AP ANN HTG 99.6% CONDNS DB, 1/21 13:00:00, -20.00000, 6.49857E-004, 348.38640, 30.00000, 0.53094, 0.00000
 Zone Sizing Information, LGSTORE2 ZN, Cooling, 20794.48191, 24953.37829, 1.56310, 1.87572, CHICAGO OHARE INTL AP ANN CLG .4% CONDNS DB=>MWB, 7/21 13:30:00, 33.03750, 1.49611E-002, 348.38640, 30.00000, 0.53094, 0.00000
 Zone Sizing Information, LGSTORE2 ZN, Heating, 35405.10743, 42486.12891, 1.56259, 1.87511, CHICAGO OHARE INTL AP ANN HTG 99.6% CONDNS DB, 1/21 13:00:00, -20.00000, 6.49857E-004, 348.38640, 30.00000, 0.53094, 0.00000
 Zone Sizing Information, SMSTORE1 ZN, Cooling, 12380.42013, 14856.50415, 0.93065, 1.11679, CHICAGO OHARE INTL AP ANN CLG .4% CONDNS DB=>MWB, 7/21 13:30:00, 33.03750, 1.49611E-002, 174.19320, 15.00000, 0.26547, 0.00000
 Zone Sizing Information, SMSTORE1 ZN, Heating, 19254.10954, 23104.93144, 0.84974, 1.01969, CHICAGO OHARE INTL AP ANN HTG 99.6% CONDNS DB, 1/21 13:00:00, -20.00000, 6.49857E-004, 174.19320, 15.00000, 0.26547, 0.00000
 Zone Sizing Information, SMSTORE2 ZN, Cooling, 11473.57683, 13768.29219, 0.86250, 1.03500, CHICAGO OHARE INTL AP ANN CLG .4% CONDNS DB=>MWB, 7/21 13:40:00, 33.12500, 1.49611E-002, 174.19320, 15.00000, 0.26547, 0.00000
 Zone Sizing Information, SMSTORE2 ZN, Heating, 19152.23675, 22982.68410, 0.84524, 1.01429, CHICAGO OHARE INTL AP ANN HTG 99.6% CONDNS DB, 1/21 13:00:00, -20.00000, 6.49857E-004, 174.19320, 15.00000, 0.26547, 0.00000
 Zone Sizing Information, SMSTORE3 ZN, Cooling, 11401.41719, 13681.70062, 0.85708, 1.02849, CHICAGO OHARE INTL AP ANN CLG .4% CONDNS DB=>MWB, 7/21 13:40:00, 33.12500, 1.49611E-002, 174.19320, 15.00000, 0.26547, 0.00000
 Zone Sizing Information, SMSTORE3 ZN, Heating, 19157.52315, 22989.02778, 0.84548, 1.01457, CHICAGO OHARE INTL AP ANN HTG 99.6% CONDNS DB, 1/21 13:00:00, -20.00000, 6.49857E-004, 174.19320, 15.00000, 0.26547, 0.00000
 Zone Sizing Information, SMSTORE4 ZN, Cooling, 11331.10076, 13597.32091, 0.85179, 1.02215, CHICAGO OHARE INTL AP ANN CLG .4% CONDNS DB=>MWB, 7/21 13:40:00, 33.12500, 1.49611E-002, 174.19320, 15.00000, 0.26547, 0.00000
 Zone Sizing Information, SMSTORE4 ZN, Heating, 19289.39976, 23147.27971, 0.85130, 1.02156, CHICAGO OHARE INTL AP ANN HTG 99.6% CONDNS DB, 1/21 13:00:00, -20.00000, 6.49857E-004, 174.19320, 15.00000, 0.26547, 0.00000
 Zone Sizing Information, SMSTORE5 ZN, Cooling, 10950.56261, 13140.67513, 0.82316, 0.98780, CHICAGO OHARE INTL AP ANN CLG .4% CONDNS DB=>MWB, 7/21 13:30:00, 33.03750, 1.49611E-002, 174.19320, 15.00000, 0.26547, 0.00000
 Zone Sizing Information, SMSTORE5 ZN, Heating, 19470.64789, 23364.77746, 0.85930, 1.03116, CHICAGO OHARE INTL AP ANN HTG 99.6% CONDNS DB, 1/21 13:00:00, -20.00000, 6.49857E-004, 174.19320, 15.00000, 0.26547, 0.00000
 Zone Sizing Information, SMSTORE6 ZN, Cooling, 10896.86449, 13076.23739, 0.81913, 0.98295, CHICAGO OHARE INTL AP ANN CLG .4% CONDNS DB=>MWB, 7/21 13:30:00, 33.03750, 1.49611E-002, 174.19320, 15.00000, 0.26547, 0.00000
 Zone Sizing Information, SMSTORE6 ZN, Heating, 19455.68833, 23346.82600, 0.85864, 1.03037, CHICAGO OHARE INTL AP ANN HTG 99.6% CONDNS DB, 1/21 13:00:00, -20.00000, 6.49857E-004, 174.19320, 15.00000, 0.26547, 0.00000
 Zone Sizing Information, SMSTORE7 ZN, Cooling, 10867.01442, 13040.41731, 0.81688, 0.98026, CHICAGO OHARE INTL AP ANN CLG .4% CONDNS DB=>MWB, 7/21 13:30:00, 33.03750, 1.49611E-002, 174.19320, 15.00000, 0.26547, 0.00000
 Zone Sizing Information, SMSTORE7 ZN, Heating, 19628.12112, 23553.74534, 0.86625, 1.03950, CHICAGO OHARE INTL AP ANN HTG 99.6% CONDNS DB, 1/21 13:00:00, -20.00000, 6.49857E-004, 174.19320, 15.00000, 0.26547, 0.00000
 Zone Sizing Information, SMSTORE8 ZN, Cooling, 11967.20831, 14360.64997, 0.89948, 1.07937, CHICAGO OHARE INTL AP ANN CLG .4% CONDNS DB=>MWB, 7/21 13:00:00, 32.77500, 1.49611E-002, 174.19320, 15.00000, 0.26547, 0.00000
 Zone Sizing Information, SMSTORE8 ZN, Heating, 21931.81693, 26318.18031, 0.96789, 1.16147, CHICAGO OHARE INTL AP ANN HTG 99.6% CONDNS DB, 1/21 13:00:00, -20.00000, 6.49857E-004, 174.19320, 15.00000, 0.26547, 0.00000
! <System Sizing Information>, System Name, Load Type, Peak Load Kind, User Design Capacity, Calc Des Air Flow Rate [m3/s], User Des Air Flow Rate [m3/s], Design Day Name, Date/Time of Peak
 System Sizing Information, LGSTORE1 ZN PSZ-AC_1, Cooling, Sensible, 34460.87, 2.18055, 2.18055, CHICAGO OHARE INTL AP ANN CLG .4% CONDNS DB=>MWB, 7/21 05:00:00
 System Sizing Information, LGSTORE1 ZN PSZ-AC_1, Heating, Sensible, 70029.09, 1.98146, 1.98146, CHICAGO OHARE INTL AP ANN HTG 99.6% CONDNS DB, 1/21 13:00:00
 System Sizing Information, LGSTORE2 ZN PSZ-AC_6, Cooling, Sensible, 30388.88, 1.87572, 1.87572, CHICAGO OHARE INTL AP ANN CLG .4% CONDNS DB=>MWB, 7/21 05:00:00
 System Sizing Information, LGSTORE2 ZN PSZ-AC_6, Heating, Sensible, 67654.00, 1.87511, 1.87511, CHICAGO OHARE INTL AP ANN HTG 99.6% CONDNS DB, 1/21 13:00:00
 System Sizing Information, SMSTORE1 ZN PSZ-AC_2, Cooling, Sensible, 17539.09, 1.11679, 1.11679, CHICAGO OHARE INTL AP ANN CLG .4% CONDNS DB=>MWB, 7/21 05:00:00
 System Sizing Information, SMSTORE1 ZN PSZ-AC_2, Heating, Sensible, 35661.53, 1.01969, 1.01969, CHICAGO OHARE INTL AP ANN HTG 99.6% CONDNS DB, 1/21 13:00:00
 System Sizing Information, SMSTORE2 ZN PSZ-AC_3, Cooling, Sensible, 16478.68, 1.03500, 1.03500, CHICAGO OHARE INTL AP ANN CLG .4% CONDNS DB=>MWB, 7/21 05:00:00
 System Sizing Information, SMSTORE2 ZN PSZ-AC_3, Heating, Sensible, 35541.05, 1.01429, 1.01429, CHICAGO OHARE INTL AP ANN HTG 99.6% CONDNS DB, 1/21 13:00:00
 System Sizing Information, SMSTORE3 ZN PSZ-AC_4, Cooling, Sensible, 16394.12, 1.02849, 1.02849, CHICAGO OHARE INTL AP ANN CLG .4% CONDNS DB=>MWB, 7/21 05:00:00
 System Sizing Information, SMSTORE3 ZN PSZ-AC_4, Heating, Sensible, 35547.30, 1.01457, 1.01457, CHICAGO OHARE INTL AP ANN HTG 99.6% CONDNS DB, 1/21 13:00:00
 System Sizing Information, SMSTORE4 ZN PSZ-AC_5, Cooling, Sensible, 16311.07, 1.02215, 1.02215, CHICAGO OHARE INTL AP ANN CLG .4% CONDNS DB=>MWB, 7/21 05:00:00
 System Sizing Information, SMSTORE4 ZN PSZ-AC_5, Heating, Sensible, 35703.25, 1.02156, 1.02156, CHICAGO OHARE INTL AP ANN HTG 99.6% CONDNS DB, 1/21 13:00:00
 System Sizing Information, SMSTORE5 ZN PSZ-AC_7, Cooling, Sensible, 15851.24, 0.98780, 0.98780, CHICAGO OHARE INTL AP ANN CLG .4% CONDNS DB=>MWB, 7/21 05:00:00
 System Sizing Information, SMSTORE5 ZN PSZ-AC_7, Heating, Sensible, 35917.60, 1.03116, 1.03116, CHICAGO OHARE INTL AP ANN HTG 99.6% CONDNS DB, 1/21 13:00:00
 System Sizing Information, SMSTORE6 ZN PSZ-AC_8, Cooling, Sensible, 15787.80, 0.98295, 0.98295, CHICAGO OHARE INTL AP ANN CLG .4% CONDNS DB=>MWB, 7/21 05:00:00
 System Sizing Information, SMSTORE6 ZN PSZ-AC_8, Heating, Sensible, 35899.91, 1.03037, 1.03037, CHICAGO OHARE INTL AP ANN HTG 99.6% CONDNS DB, 1/21 13:00:00
 System Sizing Information, SMSTORE7 ZN PSZ-AC_9, Cooling, Sensible, 15749.76, 0.98026, 0.98026, CHICAGO OHARE INTL AP ANN CLG .4% CONDNS DB=>MWB, 7/21 05:00:00
 System Sizing Information, SMSTORE7 ZN PSZ-AC_9, Heating, Sensible, 36103.82, 1.03950, 1.03950, CHICAGO OHARE INTL AP ANN HTG 99.6% CONDNS DB, 1/21 13:00:00
 System Sizing Information, SMSTORE8 ZN PSZ-AC_10, Cooling, Sensible, 16942.44, 1.07937, 1.07937, CHICAGO OHARE INTL AP ANN CLG .4% CONDNS DB=>MWB, 7/21 05:00:00
 System Sizing Information, SMSTORE8 ZN PSZ-AC_10, Heating, Sensible, 38827.83, 1.16147, 1.16147, CHICAGO OHARE INTL AP ANN HTG 99.6% CONDNS DB, 1/21 13:00:00
! <Component Sizing Information>, Component Type, Component Name, Input Field Description, Value
 Component Sizing Information, AirTerminal:SingleDuct:Uncontrolled, LGSTORE1 ZN PSZ-AC_1 DIFFUSER, Design Size Maximum Air Flow Rate [m3/s], 2.18055
 Component Sizing Information, AirTerminal:SingleDuct:Uncontrolled, LGSTORE2 ZN PSZ-AC_6 DIFFUSER, Design Size Maximum Air Flow Rate [m3/s], 1.87572
 Component Sizing Information, AirTerminal:SingleDuct:Uncontrolled, SMSTORE1 ZN PSZ-AC_2 DIFFUSER, Design Size Maximum Air Flow Rate [m3/s], 1.11679
 Component Sizing Information, AirTerminal:SingleDuct:Uncontrolled, SMSTORE2 ZN PSZ-AC_3 DIFFUSER, Design Size Maximum Air Flow Rate [m3/s], 1.03500
 Component Sizing Information, AirTerminal:SingleDuct:Uncontrolled, SMSTORE3 ZN PSZ-AC_4 DIFFUSER, Design Size Maximum Air Flow Rate [m3/s], 1.02849
 Component Sizing Information, AirTerminal:SingleDuct:Uncontrolled, SMSTORE4 ZN PSZ-AC_5 DIFFUSER, Design Size Maximum Air Flow Rate [m3/s], 1.02215
 Component Sizing Information, AirTerminal:SingleDuct:Uncontrolled, SMSTORE5 ZN PSZ-AC_7 DIFFUSER, Design Size Maximum Air Flow Rate [m3/s], 1.03116
 Component Sizing Information, AirTerminal:SingleDuct:Uncontrolled, SMSTORE6 ZN PSZ-AC_8 DIFFUSER, Design Size Maximum Air Flow Rate [m3/s], 1.03037
 Component Sizing Information, AirTerminal:SingleDuct:Uncontrolled, SMSTORE7 ZN PSZ-AC_9 DIFFUSER, Design Size Maximum Air Flow Rate [m3/s], 1.03950
 Component Sizing Information, AirTerminal:SingleDuct:Uncontrolled, SMSTORE8 ZN PSZ-AC_10 DIFFUSER, Design Size Maximum Air Flow Rate [m3/s], 1.16147
 Component Sizing Information, AirLoopHVAC, LGSTORE1 ZN PSZ-AC_1, Sum of Air Terminal Maximum Heating Flow Rates [m3/s], 2.18055
 Component Sizing Information, AirLoopHVAC, LGSTORE1 ZN PSZ-AC_1, Sum of Air Terminal Minimum Heating Flow Rates [m3/s], 2.18055
 Component Sizing Information, AirLoopHVAC, LGSTORE1 ZN PSZ-AC_1, Sum of Air Terminal Maximum Flow Rates [m3/s], 2.18055
 Component Sizing Information, AirLoopHVAC, LGSTORE1 ZN PSZ-AC_1, Adjusted Heating Design Air Flow Rate [m3/s], 2.18055
 Component Sizing Information, AirLoopHVAC, LGSTORE1 ZN PSZ-AC_1, Adjusted Cooling Design Air Flow Rate [m3/s], 2.18055
 Component Sizing Information, AirLoopHVAC, LGSTORE1 ZN PSZ-AC_1, Adjusted Main Design Air Flow Rate [m3/s], 2.18055
 Component Sizing Information, AirLoopHVAC, LGSTORE1 ZN PSZ-AC_1, User Heating Air Flow Ratio [], 1.00000
 Component Sizing Information, AirLoopHVAC, LGSTORE1 ZN PSZ-AC_1, Calculated Heating Air Flow Ratio [], 1.00000
 Component Sizing Information, AirLoopHVAC, LGSTORE2 ZN PSZ-AC_6, Sum of Air Terminal Maximum Heating Flow Rates [m3/s], 1.87572
 Component Sizing Information, AirLoopHVAC, LGSTORE2 ZN PSZ-AC_6, Sum of Air Terminal Minimum Heating Flow Rates [m3/s], 1.87572
 Component Sizing Information, AirLoopHVAC, LGSTORE2 ZN PSZ-AC_6, Sum of Air Terminal Maximum Flow Rates [m3/s], 1.87572
 Component Sizing Information, AirLoopHVAC, LGSTORE2 ZN PSZ-AC_6, Adjusted Heating Design Air Flow Rate [m3/s], 1.87572
 Component Sizing Information, AirLoopHVAC, LGSTORE2 ZN PSZ-AC_6, Adjusted Cooling Design Air Flow Rate [m3/s], 1.87572
 Component Sizing Information, AirLoopHVAC, LGSTORE2 ZN PSZ-AC_6, Adjusted Main Design Air Flow Rate [m3/s], 1.87572
 Component Sizing Information, AirLoopHVAC, LGSTORE2 ZN PSZ-AC_6, User Heating Air Flow Ratio [], 1.00000
 Component Sizing Information, AirLoopHVAC, LGSTORE2 ZN PSZ-AC_6, Calculated Heating Air Flow Ratio [], 1.00000
 Component Sizing Information, AirLoopHVAC, SMSTORE1 ZN PSZ-AC_2, Sum of Air Terminal Maximum Heating Flow Rates [m3/s], 1.11679
 Component Sizing Information, AirLoopHVAC, SMSTORE1 ZN PSZ-AC_2, Sum of Air Terminal Minimum Heating Flow Rates [m3/s], 1.11679
 Component Sizing Information, AirLoopHVAC, SMSTORE1 ZN PSZ-AC_2, Sum of Air Terminal Maximum Flow Rates [m3/s], 1.11679
 Component Sizing Information, AirLoopHVAC, SMSTORE1 ZN PSZ-AC_2, Adjusted Heating Design Air Flow Rate [m3/s], 1.11679
 Component Sizing Information, AirLoopHVAC, SMSTORE1 ZN PSZ-AC_2, Adjusted Cooling Design Air Flow Rate [m3/s], 1.11679
 Component Sizing Information, AirLoopHVAC, SMSTORE1 ZN PSZ-AC_2, Adjusted Main Design Air Flow Rate [m3/s], 1.11679
 Component Sizing Information, AirLoopHVAC, SMSTORE1 ZN PSZ-AC_2, User Heating Air Flow Ratio [], 1.00000
 Component Sizing Information, AirLoopHVAC, SMSTORE1 ZN PSZ-AC_2, Calculated Heating Air Flow Ratio [], 1.00000
 Component Sizing Information, AirLoopHVAC, SMSTORE2 ZN PSZ-AC_3, Sum of Air Terminal Maximum Heating Flow Rates [m3/s], 1.03500
 Component Sizing Information, AirLoopHVAC, SMSTORE2 ZN PSZ-AC_3, Sum of Air Terminal Minimum Heating Flow Rates [m3/s], 1.03500
 Component Sizing Information, AirLoopHVAC, SMSTORE2 ZN PSZ-AC_3, Sum of Air Terminal Maximum Flow Rates [m3/s], 1.03500
 Component Sizing Information, AirLoopHVAC, SMSTORE2 ZN PSZ-AC_3, Adjusted Heating Design Air Flow Rate [m3/s], 1.03500
 Component Sizing Information, AirLoopHVAC, SMSTORE2 ZN PSZ-AC_3, Adjusted Cooling Design Air Flow Rate [m3/s], 1.03500
 Component Sizing Information, AirLoopHVAC, SMSTORE2 ZN PSZ-AC_3, Adjusted Main Design Air Flow Rate [m3/s], 1.03500
 Component Sizing Information, AirLoopHVAC, SMSTORE2 ZN PSZ-AC_3, User Heating Air Flow Ratio [], 1.00000
 Component Sizing Information, AirLoopHVAC, SMSTORE2 ZN PSZ-AC_3, Calculated Heating Air Flow Ratio [], 1.00000
 Component Sizing Information, AirLoopHVAC, SMSTORE3 ZN PSZ-AC_4, Sum of Air Terminal Maximum Heating Flow Rates [m3/s], 1.02849
 Component Sizing Information, AirLoopHVAC, SMSTORE3 ZN PSZ-AC_4, Sum of Air Terminal Minimum Heating Flow Rates [m3/s], 1.02849
 Component Sizing Information, AirLoopHVAC, SMSTORE3 ZN PSZ-AC_4, Sum of Air Terminal Maximum Flow Rates [m3/s], 1.02849
 Component Sizing Information, AirLoopHVAC, SMSTORE3 ZN PSZ-AC_4, Adjusted Heating Design Air Flow Rate [m3/s], 1.02849
 Component Sizing Information, AirLoopHVAC, SMSTORE3 ZN PSZ-AC_4, Adjusted Cooling Design Air Flow Rate [m3/s], 1.02849
 Component Sizing Information, AirLoopHVAC, SMSTORE3 ZN PSZ-AC_4, Adjusted Main Design Air Flow Rate [m3/s], 1.02849
 Component Sizing Information, AirLoopHVAC, SMSTORE3 ZN PSZ-AC_4, User Heating Air Flow Ratio [], 1.00000
 Component Sizing Information, AirLoopHVAC, SMSTORE3 ZN PSZ-AC_4, Calculated Heating Air Flow Ratio [], 1.00000
 Component Sizing Information, AirLoopHVAC, SMSTORE4 ZN PSZ-AC_5, Sum of Air Terminal Maximum Heating Flow Rates [m3/s], 1.02215
 Component Sizing Information, AirLoopHVAC, SMSTORE4 ZN PSZ-AC_5, Sum of Air Terminal Minimum Heating Flow Rates [m3/s], 1.02215
 Component Sizing Information, AirLoopHVAC, SMSTORE4 ZN PSZ-AC_5, Sum of Air Terminal Maximum Flow Rates [m3/s], 1.02215
 Component Sizing Information, AirLoopHVAC, SMSTORE4 ZN PSZ-AC_5, Adjusted Heating Design Air Flow Rate [m3/s], 1.02215
 Component Sizing Information, AirLoopHVAC, SMSTORE4 ZN PSZ-AC_5, Adjusted Cooling Design Air Flow Rate [m3/s], 1.02215
 Component Sizing Information, AirLoopHVAC, SMSTORE4 ZN PSZ-AC_5, Adjusted Main Design Air Flow Rate [m3/s], 1.02215
 Component Sizing Information, AirLoopHVAC, SMSTORE4 ZN PSZ-AC_5, User Heating Air Flow Ratio [], 1.00000
 Component Sizing Information, AirLoopHVAC, SMSTORE4 ZN PSZ-AC_5, Calculated Heating Air Flow Ratio [], 1.00000
 Component Sizing Information, AirLoopHVAC, SMSTORE5 ZN PSZ-AC_7, Sum of Air Terminal Maximum Heating Flow Rates [m3/s], 1.03116
 Component Sizing Information, AirLoopHVAC, SMSTORE5 ZN PSZ-AC_7, Sum of Air Terminal Minimum Heating Flow Rates [m3/s], 1.03116
 Component Sizing Information, AirLoopHVAC, SMSTORE5 ZN PSZ-AC_7, Sum of Air Terminal Maximum Flow Rates [m3/s], 1.03116
 Component Sizing Information, AirLoopHVAC, SMSTORE5 ZN PSZ-AC_7, Adjusted Heating Design Air Flow Rate [m3/s], 1.03116
 Component Sizing Information, AirLoopHVAC, SMSTORE5 ZN PSZ-AC_7, Adjusted Cooling Design Air Flow Rate [m3/s], 1.03116
 Component Sizing Information, AirLoopHVAC, SMSTORE5 ZN PSZ-AC_7, Adjusted Main Design Air Flow Rate [m3/s], 1.03116
 Component Sizing Information, AirLoopHVAC, SMSTORE5 ZN PSZ-AC_7, User Heating Air Flow Ratio [], 1.00000
 Component Sizing Information, AirLoopHVAC, SMSTORE5 ZN PSZ-AC_7, Calculated Heating Air Flow Ratio [], 1.00000
 Component Sizing Information, AirLoopHVAC, SMSTORE6 ZN PSZ-AC_8, Sum of Air Terminal Maximum Heating Flow Rates [m3/s], 1.03037
 Component Sizing Information, AirLoopHVAC, SMSTORE6 ZN PSZ-AC_8, Sum of Air Terminal Minimum Heating Flow Rates [m3/s], 1.03037
 Component Sizing Information, AirLoopHVAC, SMSTORE6 ZN PSZ-AC_8, Sum of Air Terminal Maximum Flow Rates [m3/s], 1.03037
 Component Sizing Information, AirLoopHVAC, SMSTORE6 ZN PSZ-AC_8, Adjusted Heating Design Air Flow Rate [m3/s], 1.03037
 Component Sizing Information, AirLoopHVAC, SMSTORE6 ZN PSZ-AC_8, Adjusted Cooling Design Air Flow Rate [m3/s], 1.03037
 Component Sizing Information, AirLoopHVAC, SMSTORE6 ZN PSZ-AC_8, Adjusted Main Design Air Flow Rate [m3/s], 1.03037
 Component Sizing Information, AirLoopHVAC, SMSTORE6 ZN PSZ-AC_8, User Heating Air Flow Ratio [], 1.00000
 Component Sizing Information, AirLoopHVAC, SMSTORE6 ZN PSZ-AC_8, Calculated Heating Air Flow Ratio [], 1.00000
 Component Sizing Information, AirLoopHVAC, SMSTORE7 ZN PSZ-AC_9, Sum of Air Terminal Maximum Heating Flow Rates [m3/s], 1.03950
 Component Sizing Information, AirLoopHVAC, SMSTORE7 ZN PSZ-AC_9, Sum of Air Terminal Minimum Heating Flow Rates [m3/s], 1.03950
 Component Sizing Information, AirLoopHVAC, SMSTORE7 ZN PSZ-AC_9, Sum of Air Terminal Maximum Flow Rates [m3/s], 1.03950
 Component Sizing Information, AirLoopHVAC, SMSTORE7 ZN PSZ-AC_9, Adjusted Heating Design Air Flow Rate [m3/s], 1.03950
 Component Sizing Information, AirLoopHVAC, SMSTORE7 ZN PSZ-AC_9, Adjusted Cooling Design Air Flow Rate [m3/s], 1.03950
 Component Sizing Information, AirLoopHVAC, SMSTORE7 ZN PSZ-AC_9, Adjusted Main Design Air Flow Rate [m3/s], 1.03950
 Component Sizing Information, AirLoopHVAC, SMSTORE7 ZN PSZ-AC_9, User Heating Air Flow Ratio [], 1.00000
 Component Sizing Information, AirLoopHVAC, SMSTORE7 ZN PSZ-AC_9, Calculated Heating Air Flow Ratio [], 1.00000
 Component Sizing Information, AirLoopHVAC, SMSTORE8 ZN PSZ-AC_10, Sum of Air Terminal Maximum Heating Flow Rates [m3/s], 1.16147
 Component Sizing Information, AirLoopHVAC, SMSTORE8 ZN PSZ-AC_10, Sum of Air Terminal Minimum Heating Flow Rates [m3/s], 1.16147
 Component Sizing Information, AirLoopHVAC, SMSTORE8 ZN PSZ-AC_10, Sum of Air Terminal Maximum Flow Rates [m3/s], 1.16147
 Component Sizing Information, AirLoopHVAC, SMSTORE8 ZN PSZ-AC_10, Adjusted Heating Design Air Flow Rate [m3/s], 1.16147
 Component Sizing Information, AirLoopHVAC, SMSTORE8 ZN PSZ-AC_10, Adjusted Cooling Design Air Flow Rate [m3/s], 1.16147
 Component Sizing Information, AirLoopHVAC, SMSTORE8 ZN PSZ-AC_10, Adjusted Main Design Air Flow Rate [m3/s], 1.16147
 Component Sizing Information, AirLoopHVAC, SMSTORE8 ZN PSZ-AC_10, User Heating Air Flow Ratio [], 1.00000
 Component Sizing Information, AirLoopHVAC, SMSTORE8 ZN PSZ-AC_10, Calculated Heating Air Flow Ratio [], 1.00000
 Component Sizing Information, AirLoopHVAC, LGSTORE1 ZN PSZ-AC_1, Design Supply Air Flow Rate [m3/s], 2.18055
 Component Sizing Information, AirLoopHVAC, LGSTORE2 ZN PSZ-AC_6, Design Supply Air Flow Rate [m3/s], 1.87572
 Component Sizing Information, AirLoopHVAC, SMSTORE1 ZN PSZ-AC_2, Design Supply Air Flow Rate [m3/s], 1.11679
 Component Sizing Information, AirLoopHVAC, SMSTORE2 ZN PSZ-AC_3, Design Supply Air Flow Rate [m3/s], 1.03500
 Component Sizing Information, AirLoopHVAC, SMSTORE3 ZN PSZ-AC_4, Design Supply Air Flow Rate [m3/s], 1.02849
 Component Sizing Information, AirLoopHVAC, SMSTORE4 ZN PSZ-AC_5, Design Supply Air Flow Rate [m3/s], 1.02215
 Component Sizing Information, AirLoopHVAC, SMSTORE5 ZN PSZ-AC_7, Design Supply Air Flow Rate [m3/s], 1.03116
 Component Sizing Information, AirLoopHVAC, SMSTORE6 ZN PSZ-AC_8, Design Supply Air Flow Rate [m3/s], 1.03037
 Component Sizing Information, AirLoopHVAC, SMSTORE7 ZN PSZ-AC_9, Design Supply Air Flow Rate [m3/s], 1.03950
 Component Sizing Information, AirLoopHVAC, SMSTORE8 ZN PSZ-AC_10, Design Supply Air Flow Rate [m3/s], 1.16147
!<Controller:MechanicalVentilation>,Name,Availability Schedule Name,Demand Controlled Ventilation {Yes/No},System Outdoor Air Method,Zone Maximum Outdoor Air Fraction,Number of Zones,Zone Name,DSOA Name,DSZAD Name
 Controller:MechanicalVentilation,CONTROLLER MECHANICAL VENTILATION 1,RETAILSTRIPMALL TYPE1_FAN_SCH,No,ZoneSum,1.00,1,LGSTORE1 ZN,STRIPMALL STRIP MALL - TYPE 1 VENTILATION,LGSTORE1 ZN DESIGN SPEC ZONE AIR DIST
 Controller:MechanicalVentilation,CONTROLLER MECHANICAL VENTILATION 6,RETAILSTRIPMALL TYPE1_FAN_SCH,No,ZoneSum,1.00,1,LGSTORE2 ZN,STRIPMALL STRIP MALL - TYPE 3 VENTILATION,LGSTORE2 ZN DESIGN SPEC ZONE AIR DIST
 Controller:MechanicalVentilation,CONTROLLER MECHANICAL VENTILATION 2,RETAILSTRIPMALL TYPE1_FAN_SCH,No,ZoneSum,1.00,1,SMSTORE1 ZN,STRIPMALL STRIP MALL - TYPE 1 VENTILATION,SMSTORE1 ZN DESIGN SPEC ZONE AIR DIST
 Controller:MechanicalVentilation,CONTROLLER MECHANICAL VENTILATION 3,RETAILSTRIPMALL TYPE1_FAN_SCH,No,ZoneSum,1.00,1,SMSTORE2 ZN,STRIPMALL STRIP MALL - TYPE 2 VENTILATION,SMSTORE2 ZN DESIGN SPEC ZONE AIR DIST
 Controller:MechanicalVentilation,CONTROLLER MECHANICAL VENTILATION 4,RETAILSTRIPMALL TYPE1_FAN_SCH,No,ZoneSum,1.00,1,SMSTORE3 ZN,STRIPMALL STRIP MALL - TYPE 2 VENTILATION,SMSTORE3 ZN DESIGN SPEC ZONE AIR DIST
 Controller:MechanicalVentilation,CONTROLLER MECHANICAL VENTILATION 5,RETAILSTRIPMALL TYPE1_FAN_SCH,No,ZoneSum,1.00,1,SMSTORE4 ZN,STRIPMALL STRIP MALL - TYPE 2 VENTILATION,SMSTORE4 ZN DESIGN SPEC ZONE AIR DIST
 Controller:MechanicalVentilation,CONTROLLER MECHANICAL VENTILATION 7,RETAILSTRIPMALL TYPE1_FAN_SCH,No,ZoneSum,1.00,1,SMSTORE5 ZN,STRIPMALL STRIP MALL - TYPE 3 VENTILATION,SMSTORE5 ZN DESIGN SPEC ZONE AIR DIST
 Controller:MechanicalVentilation,CONTROLLER MECHANICAL VENTILATION 8,RETAILSTRIPMALL TYPE1_FAN_SCH,No,ZoneSum,1.00,1,SMSTORE6 ZN,STRIPMALL STRIP MALL - TYPE 3 VENTILATION,SMSTORE6 ZN DESIGN SPEC ZONE AIR DIST
 Controller:MechanicalVentilation,CONTROLLER MECHANICAL VENTILATION 9,RETAILSTRIPMALL TYPE1_FAN_SCH,No,ZoneSum,1.00,1,SMSTORE7 ZN,STRIPMALL STRIP MALL - TYPE 3 VENTILATION,SMSTORE7 ZN DESIGN SPEC ZONE AIR DIST
 Controller:MechanicalVentilation,CONTROLLER MECHANICAL VENTILATION 10,RETAILSTRIPMALL TYPE1_FAN_SCH,No,ZoneSum,1.00,1,SMSTORE8 ZN,STRIPMALL STRIP MALL - TYPE 3 VENTILATION,SMSTORE8 ZN DESIGN SPEC ZONE AIR DIST
 Component Sizing Information, Controller:OutdoorAir, LGSTORE1 ZN PSZ-AC_1 OA SYS CONTROLLER, Maximum Outdoor Air Flow Rate [m3/s], 2.18055
 Component Sizing Information, Coil:Cooling:DX:TwoSpeed, LGSTORE1 ZN PSZ-AC_1 2SPD DX AC CLG COIL 180KBTU/HR 9.7EER, Design Size High Speed Rated Air Flow Rate [m3/s], 2.18055
 Component Sizing Information, Coil:Cooling:DX:TwoSpeed, LGSTORE1 ZN PSZ-AC_1 2SPD DX AC CLG COIL 180KBTU/HR 9.7EER, Design Size High Speed Gross Rated Total Cooling Capacity [W], 52618.61094
 Component Sizing Information, Coil:Cooling:DX:TwoSpeed, LGSTORE1 ZN PSZ-AC_1 2SPD DX AC CLG COIL 180KBTU/HR 9.7EER, Design Size High Speed Rated Sensible Heat Ratio, 0.70721
 Component Sizing Information, Coil:Cooling:DX:TwoSpeed, LGSTORE1 ZN PSZ-AC_1 2SPD DX AC CLG COIL 180KBTU/HR 9.7EER, Design Size Low Speed Rated Air Flow Rate [m3/s], 0.72678
 Component Sizing Information, Coil:Cooling:DX:TwoSpeed, LGSTORE1 ZN PSZ-AC_1 2SPD DX AC CLG COIL 180KBTU/HR 9.7EER, Design Size Low Speed Gross Rated Total Cooling Capacity [W], 17537.78303
 Component Sizing Information, Coil:Cooling:DX:TwoSpeed, LGSTORE1 ZN PSZ-AC_1 2SPD DX AC CLG COIL 180KBTU/HR 9.7EER, Design Size Low Speed Gross Rated Sensible Heat Ratio, 0.70721
 Component Sizing Information, Coil:Cooling:DX:TwoSpeed, LGSTORE1 ZN PSZ-AC_1 2SPD DX AC CLG COIL 180KBTU/HR 9.7EER, User-Specified Low Speed Gross Rated Sensible Heat Ratio, 0.69000
 Component Sizing Information, Coil:Heating:Fuel, LGSTORE1 ZN PSZ-AC_1 GAS HTG COIL, Design Size Nominal Capacity [W], 74474.39688
 Component Sizing Information, Coil:Heating:Electric, LGSTORE1 ZN PSZ-AC_1 NO BACKUP HEAT, User-Specified Nominal Capacity [W], 0.00000
 Component Sizing Information, Fan:ConstantVolume, LGSTORE1 ZN PSZ-AC_1 FAN, Design Size Maximum Flow Rate [m3/s], 2.18055
 Component Sizing Information, Controller:OutdoorAir, LGSTORE2 ZN PSZ-AC_6 OA SYS CONTROLLER, Maximum Outdoor Air Flow Rate [m3/s], 1.87572
 Component Sizing Information, Coil:Cooling:DX:TwoSpeed, LGSTORE2 ZN PSZ-AC_6 2SPD DX AC CLG COIL 159KBTU/HR 9.7EER, Design Size High Speed Rated Air Flow Rate [m3/s], 1.87572
 Component Sizing Information, Coil:Cooling:DX:TwoSpeed, LGSTORE2 ZN PSZ-AC_6 2SPD DX AC CLG COIL 159KBTU/HR 9.7EER, Design Size High Speed Gross Rated Total Cooling Capacity [W], 46578.59419
 Component Sizing Information, Coil:Cooling:DX:TwoSpeed, LGSTORE2 ZN PSZ-AC_6 2SPD DX AC CLG COIL 159KBTU/HR 9.7EER, Design Size High Speed Rated Sensible Heat Ratio, 0.69808
 Component Sizing Information, Coil:Cooling:DX:TwoSpeed, LGSTORE2 ZN PSZ-AC_6 2SPD DX AC CLG COIL 159KBTU/HR 9.7EER, Design Size Low Speed Rated Air Flow Rate [m3/s], 0.62518
 Component Sizing Information, Coil:Cooling:DX:TwoSpeed, LGSTORE2 ZN PSZ-AC_6 2SPD DX AC CLG COIL 159KBTU/HR 9.7EER, Design Size Low Speed Gross Rated Total Cooling Capacity [W], 15524.64544
 Component Sizing Information, Coil:Cooling:DX:TwoSpeed, LGSTORE2 ZN PSZ-AC_6 2SPD DX AC CLG COIL 159KBTU/HR 9.7EER, Design Size Low Speed Gross Rated Sensible Heat Ratio, 0.69808
 Component Sizing Information, Coil:Cooling:DX:TwoSpeed, LGSTORE2 ZN PSZ-AC_6 2SPD DX AC CLG COIL 159KBTU/HR 9.7EER, User-Specified Low Speed Gross Rated Sensible Heat Ratio, 0.69000
 Component Sizing Information, Coil:Heating:Fuel, LGSTORE2 ZN PSZ-AC_6 GAS HTG COIL, Design Size Nominal Capacity [W], 67667.65615
 Component Sizing Information, Coil:Heating:Electric, LGSTORE2 ZN PSZ-AC_6 NO BACKUP HEAT, User-Specified Nominal Capacity [W], 0.00000
 Component Sizing Information, Fan:ConstantVolume, LGSTORE2 ZN PSZ-AC_6 FAN, Design Size Maximum Flow Rate [m3/s], 1.87572
 Component Sizing Information, Controller:OutdoorAir, SMSTORE1 ZN PSZ-AC_2 OA SYS CONTROLLER, Maximum Outdoor Air Flow Rate [m3/s], 1.11679
 Component Sizing Information, Coil:Cooling:DX:TwoSpeed, SMSTORE1 ZN PSZ-AC_2 2SPD DX AC CLG COIL 92KBTU/HR 10.3EER, Design Size High Speed Rated Air Flow Rate [m3/s], 1.11679
 Component Sizing Information, Coil:Cooling:DX:TwoSpeed, SMSTORE1 ZN PSZ-AC_2 2SPD DX AC CLG COIL 92KBTU/HR 10.3EER, Design Size High Speed Gross Rated Total Cooling Capacity [W], 27023.83413
 Component Sizing Information, Coil:Cooling:DX:TwoSpeed, SMSTORE1 ZN PSZ-AC_2 2SPD DX AC CLG COIL 92KBTU/HR 10.3EER, Design Size High Speed Rated Sensible Heat Ratio, 0.70651
 Component Sizing Information, Coil:Cooling:DX:TwoSpeed, SMSTORE1 ZN PSZ-AC_2 2SPD DX AC CLG COIL 92KBTU/HR 10.3EER, Design Size Low Speed Rated Air Flow Rate [m3/s], 0.37222
 Component Sizing Information, Coil:Cooling:DX:TwoSpeed, SMSTORE1 ZN PSZ-AC_2 2SPD DX AC CLG COIL 92KBTU/HR 10.3EER, Design Size Low Speed Gross Rated Total Cooling Capacity [W], 9007.04392
 Component Sizing Information, Coil:Cooling:DX:TwoSpeed, SMSTORE1 ZN PSZ-AC_2 2SPD DX AC CLG COIL 92KBTU/HR 10.3EER, Design Size Low Speed Gross Rated Sensible Heat Ratio, 0.70651
 Component Sizing Information, Coil:Cooling:DX:TwoSpeed, SMSTORE1 ZN PSZ-AC_2 2SPD DX AC CLG COIL 92KBTU/HR 10.3EER, User-Specified Low Speed Gross Rated Sensible Heat Ratio, 0.69000
 Component Sizing Information, Coil:Heating:Fuel, SMSTORE1 ZN PSZ-AC_2 GAS HTG COIL, Design Size Nominal Capacity [W], 37829.56465
 Component Sizing Information, Coil:Heating:Electric, SMSTORE1 ZN PSZ-AC_2 NO BACKUP HEAT, User-Specified Nominal Capacity [W], 0.00000
 Component Sizing Information, Fan:ConstantVolume, SMSTORE1 ZN PSZ-AC_2 FAN, Design Size Maximum Flow Rate [m3/s], 1.11679
 Component Sizing Information, Controller:OutdoorAir, SMSTORE2 ZN PSZ-AC_3 OA SYS CONTROLLER, Maximum Outdoor Air Flow Rate [m3/s], 1.03500
 Component Sizing Information, Coil:Cooling:DX:TwoSpeed, SMSTORE2 ZN PSZ-AC_3 2SPD DX AC CLG COIL 87KBTU/HR 10.3EER, Design Size High Speed Rated Air Flow Rate [m3/s], 1.03500
 Component Sizing Information, Coil:Cooling:DX:TwoSpeed, SMSTORE2 ZN PSZ-AC_3 2SPD DX AC CLG COIL 87KBTU/HR 10.3EER, Design Size High Speed Gross Rated Total Cooling Capacity [W], 25585.25214
 Component Sizing Information, Coil:Cooling:DX:TwoSpeed, SMSTORE2 ZN PSZ-AC_3 2SPD DX AC CLG COIL 87KBTU/HR 10.3EER, Design Size High Speed Rated Sensible Heat Ratio, 0.69920
 Component Sizing Information, Coil:Cooling:DX:TwoSpeed, SMSTORE2 ZN PSZ-AC_3 2SPD DX AC CLG COIL 87KBTU/HR 10.3EER, Design Size Low Speed Rated Air Flow Rate [m3/s], 0.34497
 Component Sizing Information, Coil:Cooling:DX:TwoSpeed, SMSTORE2 ZN PSZ-AC_3 2SPD DX AC CLG COIL 87KBTU/HR 10.3EER, Design Size Low Speed Gross Rated Total Cooling Capacity [W], 8527.56454
 Component Sizing Information, Coil:Cooling:DX:TwoSpeed, SMSTORE2 ZN PSZ-AC_3 2SPD DX AC CLG COIL 87KBTU/HR 10.3EER, Design Size Low Speed Gross Rated Sensible Heat Ratio, 0.69920
 Component Sizing Information, Coil:Cooling:DX:TwoSpeed, SMSTORE2 ZN PSZ-AC_3 2SPD DX AC CLG COIL 87KBTU/HR 10.3EER, User-Specified Low Speed Gross Rated Sensible Heat Ratio, 0.69000
 Component Sizing Information, Coil:Heating:Fuel, SMSTORE2 ZN PSZ-AC_3 GAS HTG COIL, Design Size Nominal Capacity [W], 36003.42869
 Component Sizing Information, Coil:Heating:Electric, SMSTORE2 ZN PSZ-AC_3 NO BACKUP HEAT, User-Specified Nominal Capacity [W], 0.00000
 Component Sizing Information, Fan:ConstantVolume, SMSTORE2 ZN PSZ-AC_3 FAN, Design Size Maximum Flow Rate [m3/s], 1.03500
 Component Sizing Information, Controller:OutdoorAir, SMSTORE3 ZN PSZ-AC_4 OA SYS CONTROLLER, Maximum Outdoor Air Flow Rate [m3/s], 1.02849
 Component Sizing Information, Coil:Cooling:DX:TwoSpeed, SMSTORE3 ZN PSZ-AC_4 2SPD DX AC CLG COIL 87KBTU/HR 10.3EER, Design Size High Speed Rated Air Flow Rate [m3/s], 1.02849
 Component Sizing Information, Coil:Cooling:DX:TwoSpeed, SMSTORE3 ZN PSZ-AC_4 2SPD DX AC CLG COIL 87KBTU/HR 10.3EER, Design Size High Speed Gross Rated Total Cooling Capacity [W], 25469.89414
 Component Sizing Information, Coil:Cooling:DX:TwoSpeed, SMSTORE3 ZN PSZ-AC_4 2SPD DX AC CLG COIL 87KBTU/HR 10.3EER, Design Size High Speed Rated Sensible Heat Ratio, 0.69876
 Component Sizing Information, Coil:Cooling:DX:TwoSpeed, SMSTORE3 ZN PSZ-AC_4 2SPD DX AC CLG COIL 87KBTU/HR 10.3EER, Design Size Low Speed Rated Air Flow Rate [m3/s], 0.34280
 Component Sizing Information, Coil:Cooling:DX:TwoSpeed, SMSTORE3 ZN PSZ-AC_4 2SPD DX AC CLG COIL 87KBTU/HR 10.3EER, Design Size Low Speed Gross Rated Total Cooling Capacity [W], 8489.11572
 Component Sizing Information, Coil:Cooling:DX:TwoSpeed, SMSTORE3 ZN PSZ-AC_4 2SPD DX AC CLG COIL 87KBTU/HR 10.3EER, Design Size Low Speed Gross Rated Sensible Heat Ratio, 0.69876
 Component Sizing Information, Coil:Cooling:DX:TwoSpeed, SMSTORE3 ZN PSZ-AC_4 2SPD DX AC CLG COIL 87KBTU/HR 10.3EER, User-Specified Low Speed Gross Rated Sensible Heat Ratio, 0.69000
 Component Sizing Information, Coil:Heating:Fuel, SMSTORE3 ZN PSZ-AC_4 GAS HTG COIL, Design Size Nominal Capacity [W], 35858.08019
 Component Sizing Information, Coil:Heating:Electric, SMSTORE3 ZN PSZ-AC_4 NO BACKUP HEAT, User-Specified Nominal Capacity [W], 0.00000
 Component Sizing Information, Fan:ConstantVolume, SMSTORE3 ZN PSZ-AC_4 FAN, Design Size Maximum Flow Rate [m3/s], 1.02849
 Component Sizing Information, Controller:OutdoorAir, SMSTORE4 ZN PSZ-AC_5 OA SYS CONTROLLER, Maximum Outdoor Air Flow Rate [m3/s], 1.02215
 Component Sizing Information, Coil:Cooling:DX:TwoSpeed, SMSTORE4 ZN PSZ-AC_5 2SPD DX AC CLG COIL 87KBTU/HR 10.3EER, Design Size High Speed Rated Air Flow Rate [m3/s], 1.02215
 Component Sizing Information, Coil:Cooling:DX:TwoSpeed, SMSTORE4 ZN PSZ-AC_5 2SPD DX AC CLG COIL 87KBTU/HR 10.3EER, Design Size High Speed Gross Rated Total Cooling Capacity [W], 25357.69770
 Component Sizing Information, Coil:Cooling:DX:TwoSpeed, SMSTORE4 ZN PSZ-AC_5 2SPD DX AC CLG COIL 87KBTU/HR 10.3EER, Design Size High Speed Rated Sensible Heat Ratio, 0.69832
 Component Sizing Information, Coil:Cooling:DX:TwoSpeed, SMSTORE4 ZN PSZ-AC_5 2SPD DX AC CLG COIL 87KBTU/HR 10.3EER, Design Size Low Speed Rated Air Flow Rate [m3/s], 0.34068
 Component Sizing Information, Coil:Cooling:DX:TwoSpeed, SMSTORE4 ZN PSZ-AC_5 2SPD DX AC CLG COIL 87KBTU/HR 10.3EER, Design Size Low Speed Gross Rated Total Cooling Capacity [W], 8451.72064
 Component Sizing Information, Coil:Cooling:DX:TwoSpeed, SMSTORE4 ZN PSZ-AC_5 2SPD DX AC CLG COIL 87KBTU/HR 10.3EER, Design Size Low Speed Gross Rated Sensible Heat Ratio, 0.69832
 Component Sizing Information, Coil:Cooling:DX:TwoSpeed, SMSTORE4 ZN PSZ-AC_5 2SPD DX AC CLG COIL 87KBTU/HR 10.3EER, User-Specified Low Speed Gross Rated Sensible Heat Ratio, 0.69000
 Component Sizing Information, Coil:Heating:Fuel, SMSTORE4 ZN PSZ-AC_5 GAS HTG COIL, Design Size Nominal Capacity [W], 35716.41974
 Component Sizing Information, Coil:Heating:Electric, SMSTORE4 ZN PSZ-AC_5 NO BACKUP HEAT, User-Specified Nominal Capacity [W], 0.00000
 Component Sizing Information, Fan:ConstantVolume, SMSTORE4 ZN PSZ-AC_5 FAN, Design Size Maximum Flow Rate [m3/s], 1.02215
 Component Sizing Information, Controller:OutdoorAir, SMSTORE5 ZN PSZ-AC_7 OA SYS CONTROLLER, Maximum Outdoor Air Flow Rate [m3/s], 1.03116
 Component Sizing Information, Coil:Cooling:DX:TwoSpeed, SMSTORE5 ZN PSZ-AC_7 2SPD DX AC CLG COIL 87KBTU/HR 10.3EER, Design Size High Speed Rated Air Flow Rate [m3/s], 1.03116
 Component Sizing Information, Coil:Cooling:DX:TwoSpeed, SMSTORE5 ZN PSZ-AC_7 2SPD DX AC CLG COIL 87KBTU/HR 10.3EER, Design Size High Speed Gross Rated Total Cooling Capacity [W], 25606.12963
 Component Sizing Information, Coil:Cooling:DX:TwoSpeed, SMSTORE5 ZN PSZ-AC_7 2SPD DX AC CLG COIL 87KBTU/HR 10.3EER, Design Size High Speed Rated Sensible Heat Ratio, 0.69808
 Component Sizing Information, Coil:Cooling:DX:TwoSpeed, SMSTORE5 ZN PSZ-AC_7 2SPD DX AC CLG COIL 87KBTU/HR 10.3EER, Design Size Low Speed Rated Air Flow Rate [m3/s], 0.34369
 Component Sizing Information, Coil:Cooling:DX:TwoSpeed, SMSTORE5 ZN PSZ-AC_7 2SPD DX AC CLG COIL 87KBTU/HR 10.3EER, Design Size Low Speed Gross Rated Total Cooling Capacity [W], 8534.52301
 Component Sizing Information, Coil:Cooling:DX:TwoSpeed, SMSTORE5 ZN PSZ-AC_7 2SPD DX AC CLG COIL 87KBTU/HR 10.3EER, Design Size Low Speed Gross Rated Sensible Heat Ratio, 0.69808
 Component Sizing Information, Coil:Cooling:DX:TwoSpeed, SMSTORE5 ZN PSZ-AC_7 2SPD DX AC CLG COIL 87KBTU/HR 10.3EER, User-Specified Low Speed Gross Rated Sensible Heat Ratio, 0.69000
 Component Sizing Information, Coil:Heating:Fuel, SMSTORE5 ZN PSZ-AC_7 GAS HTG COIL, Design Size Nominal Capacity [W], 35917.60313
 Component Sizing Information, Coil:Heating:Electric, SMSTORE5 ZN PSZ-AC_7 NO BACKUP HEAT, User-Specified Nominal Capacity [W], 0.00000
 Component Sizing Information, Fan:ConstantVolume, SMSTORE5 ZN PSZ-AC_7 FAN, Design Size Maximum Flow Rate [m3/s], 1.03116
 Component Sizing Information, Controller:OutdoorAir, SMSTORE6 ZN PSZ-AC_8 OA SYS CONTROLLER, Maximum Outdoor Air Flow Rate [m3/s], 1.03037
 Component Sizing Information, Coil:Cooling:DX:TwoSpeed, SMSTORE6 ZN PSZ-AC_8 2SPD DX AC CLG COIL 87KBTU/HR 10.3EER, Design Size High Speed Rated Air Flow Rate [m3/s], 1.03037
 Component Sizing Information, Coil:Cooling:DX:TwoSpeed, SMSTORE6 ZN PSZ-AC_8 2SPD DX AC CLG COIL 87KBTU/HR 10.3EER, Design Size High Speed Gross Rated Total Cooling Capacity [W], 25586.45550
 Component Sizing Information, Coil:Cooling:DX:TwoSpeed, SMSTORE6 ZN PSZ-AC_8 2SPD DX AC CLG COIL 87KBTU/HR 10.3EER, Design Size High Speed Rated Sensible Heat Ratio, 0.69808
 Component Sizing Information, Coil:Cooling:DX:TwoSpeed, SMSTORE6 ZN PSZ-AC_8 2SPD DX AC CLG COIL 87KBTU/HR 10.3EER, Design Size Low Speed Rated Air Flow Rate [m3/s], 0.34342
 Component Sizing Information, Coil:Cooling:DX:TwoSpeed, SMSTORE6 ZN PSZ-AC_8 2SPD DX AC CLG COIL 87KBTU/HR 10.3EER, Design Size Low Speed Gross Rated Total Cooling Capacity [W], 8527.96562
 Component Sizing Information, Coil:Cooling:DX:TwoSpeed, SMSTORE6 ZN PSZ-AC_8 2SPD DX AC CLG COIL 87KBTU/HR 10.3EER, Design Size Low Speed Gross Rated Sensible Heat Ratio, 0.69808
 Component Sizing Information, Coil:Cooling:DX:TwoSpeed, SMSTORE6 ZN PSZ-AC_8 2SPD DX AC CLG COIL 87KBTU/HR 10.3EER, User-Specified Low Speed Gross Rated Sensible Heat Ratio, 0.69000
 Component Sizing Information, Coil:Heating:Fuel, SMSTORE6 ZN PSZ-AC_8 GAS HTG COIL, Design Size Nominal Capacity [W], 35899.91307
 Component Sizing Information, Coil:Heating:Electric, SMSTORE6 ZN PSZ-AC_8 NO BACKUP HEAT, User-Specified Nominal Capacity [W], 0.00000
 Component Sizing Information, Fan:ConstantVolume, SMSTORE6 ZN PSZ-AC_8 FAN, Design Size Maximum Flow Rate [m3/s], 1.03037
 Component Sizing Information, Controller:OutdoorAir, SMSTORE7 ZN PSZ-AC_9 OA SYS CONTROLLER, Maximum Outdoor Air Flow Rate [m3/s], 1.03950
 Component Sizing Information, Coil:Cooling:DX:TwoSpeed, SMSTORE7 ZN PSZ-AC_9 2SPD DX AC CLG COIL 88KBTU/HR 10.3EER, Design Size High Speed Rated Air Flow Rate [m3/s], 1.03950
 Component Sizing Information, Coil:Cooling:DX:TwoSpeed, SMSTORE7 ZN PSZ-AC_9 2SPD DX AC CLG COIL 88KBTU/HR 10.3EER, Design Size High Speed Gross Rated Total Cooling Capacity [W], 25813.23521
 Component Sizing Information, Coil:Cooling:DX:TwoSpeed, SMSTORE7 ZN PSZ-AC_9 2SPD DX AC CLG COIL 88KBTU/HR 10.3EER, Design Size High Speed Rated Sensible Heat Ratio, 0.69808
 Component Sizing Information, Coil:Cooling:DX:TwoSpeed, SMSTORE7 ZN PSZ-AC_9 2SPD DX AC CLG COIL 88KBTU/HR 10.3EER, Design Size Low Speed Rated Air Flow Rate [m3/s], 0.34647
 Component Sizing Information, Coil:Cooling:DX:TwoSpeed, SMSTORE7 ZN PSZ-AC_9 2SPD DX AC CLG COIL 88KBTU/HR 10.3EER, Design Size Low Speed Gross Rated Total Cooling Capacity [W], 8603.55130
 Component Sizing Information, Coil:Cooling:DX:TwoSpeed, SMSTORE7 ZN PSZ-AC_9 2SPD DX AC CLG COIL 88KBTU/HR 10.3EER, Design Size Low Speed Gross Rated Sensible Heat Ratio, 0.69808
 Component Sizing Information, Coil:Cooling:DX:TwoSpeed, SMSTORE7 ZN PSZ-AC_9 2SPD DX AC CLG COIL 88KBTU/HR 10.3EER, User-Specified Low Speed Gross Rated Sensible Heat Ratio, 0.69000
 Component Sizing Information, Coil:Heating:Fuel, SMSTORE7 ZN PSZ-AC_9 GAS HTG COIL, Design Size Nominal Capacity [W], 36103.82107
 Component Sizing Information, Coil:Heating:Electric, SMSTORE7 ZN PSZ-AC_9 NO BACKUP HEAT, User-Specified Nominal Capacity [W], 0.00000
 Component Sizing Information, Fan:ConstantVolume, SMSTORE7 ZN PSZ-AC_9 FAN, Design Size Maximum Flow Rate [m3/s], 1.03950
 Component Sizing Information, Controller:OutdoorAir, SMSTORE8 ZN PSZ-AC_10 OA SYS CONTROLLER, Maximum Outdoor Air Flow Rate [m3/s], 1.16147
 Component Sizing Information, Coil:Cooling:DX:TwoSpeed, SMSTORE8 ZN PSZ-AC_10 2SPD DX AC CLG COIL 97KBTU/HR 10.3EER, Design Size High Speed Rated Air Flow Rate [m3/s], 1.16147
 Component Sizing Information, Coil:Cooling:DX:TwoSpeed, SMSTORE8 ZN PSZ-AC_10 2SPD DX AC CLG COIL 97KBTU/HR 10.3EER, Design Size High Speed Gross Rated Total Cooling Capacity [W], 28272.88243
 Component Sizing Information, Coil:Cooling:DX:TwoSpeed, SMSTORE8 ZN PSZ-AC_10 2SPD DX AC CLG COIL 97KBTU/HR 10.3EER, Design Size High Speed Rated Sensible Heat Ratio, 0.70402
 Component Sizing Information, Coil:Cooling:DX:TwoSpeed, SMSTORE8 ZN PSZ-AC_10 2SPD DX AC CLG COIL 97KBTU/HR 10.3EER, Design Size Low Speed Rated Air Flow Rate [m3/s], 0.38712
 Component Sizing Information, Coil:Cooling:DX:TwoSpeed, SMSTORE8 ZN PSZ-AC_10 2SPD DX AC CLG COIL 97KBTU/HR 10.3EER, Design Size Low Speed Gross Rated Total Cooling Capacity [W], 9423.35171
 Component Sizing Information, Coil:Cooling:DX:TwoSpeed, SMSTORE8 ZN PSZ-AC_10 2SPD DX AC CLG COIL 97KBTU/HR 10.3EER, Design Size Low Speed Gross Rated Sensible Heat Ratio, 0.70402
 Component Sizing Information, Coil:Cooling:DX:TwoSpeed, SMSTORE8 ZN PSZ-AC_10 2SPD DX AC CLG COIL 97KBTU/HR 10.3EER, User-Specified Low Speed Gross Rated Sensible Heat Ratio, 0.69000
 Component Sizing Information, Coil:Heating:Fuel, SMSTORE8 ZN PSZ-AC_10 GAS HTG COIL, Design Size Nominal Capacity [W], 38827.82810
 Component Sizing Information, Coil:Heating:Electric, SMSTORE8 ZN PSZ-AC_10 NO BACKUP HEAT, User-Specified Nominal Capacity [W], 0.00000
 Component Sizing Information, Fan:ConstantVolume, SMSTORE8 ZN PSZ-AC_10 FAN, Design Size Maximum Flow Rate [m3/s], 1.16147
Water Heater Information,WaterHeater:Mixed,40GAL ELECTRICITY WATER HEATER - 40KBTU/HR 1.0 THERM EFF,0.1514,11722.8,1.019,0.7779
Water Heater Information,WaterHeater:Mixed,40GAL ELECTRICITY WATER HEATER - 40KBTU/HR 1 1.0 THERM EFF,0.1514,11722.8,1.019,0.7779
Water Heater Information,WaterHeater:Mixed,40GAL ELECTRICITY WATER HEATER - 40KBTU/HR 2 1.0 THERM EFF,0.1514,11722.8,1.019,0.7779
Water Heater Information,WaterHeater:Mixed,40GAL ELECTRICITY WATER HEATER - 40KBTU/HR 3 1.0 THERM EFF,0.1514,11722.8,1.019,0.7779
Water Heater Information,WaterHeater:Mixed,40GAL ELECTRICITY WATER HEATER - 40KBTU/HR 4 1.0 THERM EFF,0.1514,11722.8,1.019,0.7779
Water Heater Information,WaterHeater:Mixed,40GAL ELECTRICITY WATER HEATER - 40KBTU/HR 5 1.0 THERM EFF,0.1514,11722.8,1.019,0.7779
Water Heater Information,WaterHeater:Mixed,40GAL ELECTRICITY WATER HEATER - 40KBTU/HR 6 1.0 THERM EFF,0.1514,11722.8,1.019,0.7779
 Component Sizing Information, PlantLoop, LGSTORE1 ZN SERVICE WATER LOOP, Maximum Loop Flow Rate [m3/s], 1.89271E-006
 Component Sizing Information, PlantLoop, LGSTORE1 ZN SERVICE WATER LOOP, Plant Loop Volume [m3], 2.27125E-004
 Component Sizing Information, Pump:ConstantSpeed, SERVICE WATER LOOP PUMP, Design Flow Rate [m3/s], 1.89271E-006
 Component Sizing Information, Pump:ConstantSpeed, SERVICE WATER LOOP PUMP, Design Power Consumption [W], 2.94127E-009
 Component Sizing Information, WaterHeater:Mixed, 40GAL ELECTRICITY WATER HEATER - 40KBTU/HR 1.0 THERM EFF, Use Side Design Flow Rate [m3/s], 1.89271E-006
 Component Sizing Information, PlantLoop, LGSTORE2 ZN SERVICE WATER LOOP, Maximum Loop Flow Rate [m3/s], 1.89271E-006
 Component Sizing Information, PlantLoop, LGSTORE2 ZN SERVICE WATER LOOP, Plant Loop Volume [m3], 2.27125E-004
 Component Sizing Information, Pump:ConstantSpeed, SERVICE WATER LOOP PUMP 1, Design Flow Rate [m3/s], 1.89271E-006
 Component Sizing Information, Pump:ConstantSpeed, SERVICE WATER LOOP PUMP 1, Design Power Consumption [W], 2.94127E-009
 Component Sizing Information, WaterHeater:Mixed, 40GAL ELECTRICITY WATER HEATER - 40KBTU/HR 1 1.0 THERM EFF, Use Side Design Flow Rate [m3/s], 1.89271E-006
 Component Sizing Information, PlantLoop, SMSTORE1 ZN SERVICE WATER LOOP, Maximum Loop Flow Rate [m3/s], 1.89271E-006
 Component Sizing Information, PlantLoop, SMSTORE1 ZN SERVICE WATER LOOP, Plant Loop Volume [m3], 2.27125E-004
 Component Sizing Information, Pump:ConstantSpeed, SERVICE WATER LOOP PUMP 2, Design Flow Rate [m3/s], 1.89271E-006
 Component Sizing Information, Pump:ConstantSpeed, SERVICE WATER LOOP PUMP 2, Design Power Consumption [W], 2.94127E-009
 Component Sizing Information, WaterHeater:Mixed, 40GAL ELECTRICITY WATER HEATER - 40KBTU/HR 2 1.0 THERM EFF, Use Side Design Flow Rate [m3/s], 1.89271E-006
 Component Sizing Information, PlantLoop, SMSTORE2 ZN SERVICE WATER LOOP, Maximum Loop Flow Rate [m3/s], 1.89271E-006
 Component Sizing Information, PlantLoop, SMSTORE2 ZN SERVICE WATER LOOP, Plant Loop Volume [m3], 2.27125E-004
 Component Sizing Information, Pump:ConstantSpeed, SERVICE WATER LOOP PUMP 3, Design Flow Rate [m3/s], 1.89271E-006
 Component Sizing Information, Pump:ConstantSpeed, SERVICE WATER LOOP PUMP 3, Design Power Consumption [W], 2.94127E-009
 Component Sizing Information, WaterHeater:Mixed, 40GAL ELECTRICITY WATER HEATER - 40KBTU/HR 3 1.0 THERM EFF, Use Side Design Flow Rate [m3/s], 1.89271E-006
 Component Sizing Information, PlantLoop, SMSTORE3 ZN SERVICE WATER LOOP, Maximum Loop Flow Rate [m3/s], 1.89271E-006
 Component Sizing Information, PlantLoop, SMSTORE3 ZN SERVICE WATER LOOP, Plant Loop Volume [m3], 2.27125E-004
 Component Sizing Information, Pump:ConstantSpeed, SERVICE WATER LOOP PUMP 4, Design Flow Rate [m3/s], 1.89271E-006
 Component Sizing Information, Pump:ConstantSpeed, SERVICE WATER LOOP PUMP 4, Design Power Consumption [W], 2.94127E-009
 Component Sizing Information, WaterHeater:Mixed, 40GAL ELECTRICITY WATER HEATER - 40KBTU/HR 4 1.0 THERM EFF, Use Side Design Flow Rate [m3/s], 1.89271E-006
 Component Sizing Information, PlantLoop, SMSTORE5 ZN SERVICE WATER LOOP, Maximum Loop Flow Rate [m3/s], 1.89271E-006
 Component Sizing Information, PlantLoop, SMSTORE5 ZN SERVICE WATER LOOP, Plant Loop Volume [m3], 2.27125E-004
 Component Sizing Information, Pump:ConstantSpeed, SERVICE WATER LOOP PUMP 5, Design Flow Rate [m3/s], 1.89271E-006
 Component Sizing Information, Pump:ConstantSpeed, SERVICE WATER LOOP PUMP 5, Design Power Consumption [W], 2.94127E-009
 Component Sizing Information, WaterHeater:Mixed, 40GAL ELECTRICITY WATER HEATER - 40KBTU/HR 5 1.0 THERM EFF, Use Side Design Flow Rate [m3/s], 1.89271E-006
 Component Sizing Information, PlantLoop, SMSTORE6 ZN SERVICE WATER LOOP, Maximum Loop Flow Rate [m3/s], 1.89271E-006
 Component Sizing Information, PlantLoop, SMSTORE6 ZN SERVICE WATER LOOP, Plant Loop Volume [m3], 2.27125E-004
 Component Sizing Information, Pump:ConstantSpeed, SERVICE WATER LOOP PUMP 6, Design Flow Rate [m3/s], 1.89271E-006
 Component Sizing Information, Pump:ConstantSpeed, SERVICE WATER LOOP PUMP 6, Design Power Consumption [W], 2.94127E-009
 Component Sizing Information, WaterHeater:Mixed, 40GAL ELECTRICITY WATER HEATER - 40KBTU/HR 6 1.0 THERM EFF, Use Side Design Flow Rate [m3/s], 1.89271E-006
! <Environment>,Environment Name,Environment Type, Start Date, End Date, Start DayOfWeek, Duration {#days}, Source:Start DayOfWeek,  Use Daylight Saving, Use Holidays, Apply Weekend Holiday Rule,  Use Rain Values, Use Snow Values
! <Environment:Special Days>, Special Day Name, Special Day Type, Source, Start Date, Duration {#days}
! <Environment:Daylight Saving>, Daylight Saving Indicator, Source, Start Date, End Date
! <Environment:WarmupDays>, NumberofWarmupDays
Environment,RUN PERIOD 1,WeatherFileRunPeriod,01/01,12/31,Sunday,365,Use RunPeriod Specified Day,No,No,No,Yes,Yes
Environment:Daylight Saving,No,RunPeriod Object
Environment:WarmupDays,  6
! <Tabular Report>,Style,Unit Conversion
Tabular Report,HTML,None
! <Warmup Convergence Information>,Zone Name,Environment Type/Name,Average Warmup Temperature Difference {deltaC},Std Dev Warmup Temperature Difference {deltaC},Max Temperature Pass/Fail Convergence,Min Temperature Pass/Fail Convergence,Average Warmup Load Difference {W},Std Dev Warmup Load Difference {W},Heating Load Pass/Fail Convergence,Cooling Load Pass/Fail Convergence
 Warmup Convergence Information,LGSTORE1 ZN,RunPeriod: RUN PERIOD 1,9.1383307410E-002,0.3879202985,Pass,Pass,0.6786878872,6.6227470186,Pass,Pass
 Warmup Convergence Information,LGSTORE2 ZN,RunPeriod: RUN PERIOD 1,0.1222498112,0.4329200242,Pass,Pass,0.2185819193,0.5320245608,Pass,Pass
 Warmup Convergence Information,SMSTORE1 ZN,RunPeriod: RUN PERIOD 1,7.7395924991E-002,0.3835405800,Pass,Pass,0.2793520533,1.6197762169,Pass,Pass
 Warmup Convergence Information,SMSTORE2 ZN,RunPeriod: RUN PERIOD 1,0.1032511698,0.4116126514,Pass,Pass,8.8558104113E-002,0.2074007891,Pass,Pass
 Warmup Convergence Information,SMSTORE3 ZN,RunPeriod: RUN PERIOD 1,0.1125618089,0.4194044156,Pass,Pass,0.1350978866,0.3518379978,Pass,Pass
 Warmup Convergence Information,SMSTORE4 ZN,RunPeriod: RUN PERIOD 1,0.1163481047,0.4324967631,Pass,Pass,0.1830049448,0.4971736498,Pass,Pass
 Warmup Convergence Information,SMSTORE5 ZN,RunPeriod: RUN PERIOD 1,0.1151343842,0.4288545087,Pass,Pass,0.2000437138,0.4970078656,Pass,Pass
 Warmup Convergence Information,SMSTORE6 ZN,RunPeriod: RUN PERIOD 1,0.1154232911,0.4290686417,Pass,Pass,0.2023988354,0.5059329735,Pass,Pass
 Warmup Convergence Information,SMSTORE7 ZN,RunPeriod: RUN PERIOD 1,0.1187293860,0.4330055816,Pass,Pass,0.1728022811,0.3997280642,Pass,Pass
 Warmup Convergence Information,SMSTORE8 ZN,RunPeriod: RUN PERIOD 1,0.1386475017,0.4560922574,Pass,Pass,0.3186363348,0.5780358845,Pass,Pass
! <Program Control Information:Threads/Parallel Sims>, Threading Supported,Maximum Number of Threads, Env Set Threads (OMP_NUM_THREADS), EP Env Set Threads (EP_OMP_NUM_THREADS), IDF Set Threads, Number of Threads Used (Interior Radiant Exchange), Number Nominal Surfaces, Number Parallel Sims
Program Control:Threads/Parallel Sims, No,1, N/A, N/A, N/A, N/A, N/A, N/A
End of Data
