Program Version,EnergyPlus, Version 8.9.0-eba93e8e1b, YMD=2018.07.10 14:15
! This file shows details about the branches, nodes, and other
! elements of the flow connections.
! This file is intended for use in "debugging" potential problems
! that may also be detected by the program, but may be more easily
! identified by "eye".
! This file is also intended to support software which draws a
! schematic diagram of the HVAC system.
! ===============================================================
! #Nodes,<Number of Unique Nodes>
 #Nodes,257
! <Node>,<NodeNumber>,<Node Name>,<Node Fluid Type>,<# Times Node Referenced After Definition>
 Node,1,NODE 15,Air,4
 Node,2,NODE 75,Air,4
 Node,3,NODE 27,Air,4
 Node,4,NODE 39,Air,4
 Node,5,NODE 51,Air,4
 Node,6,NODE 63,Air,4
 Node,7,NODE 87,Air,4
 Node,8,NODE 99,Air,4
 Node,9,NODE 111,Air,4
 Node,10,NODE 123,Air,4
 Node,11,NODE 12,Air,12
 Node,12,NODE 13,Air,3
 Node,13,NODE 72,Air,12
 Node,14,NODE 73,Air,3
 Node,15,NODE 24,Air,12
 Node,16,NODE 25,Air,3
 Node,17,NODE 36,Air,12
 Node,18,NODE 37,Air,3
 Node,19,NODE 48,Air,12
 Node,20,NODE 49,Air,3
 Node,21,NODE 60,Air,12
 Node,22,NODE 61,Air,3
 Node,23,NODE 84,Air,12
 Node,24,NODE 85,Air,3
 Node,25,NODE 96,Air,12
 Node,26,NODE 97,Air,3
 Node,27,NODE 108,Air,12
 Node,28,NODE 109,Air,3
 Node,29,NODE 120,Air,12
 Node,30,NODE 121,Air,3
 Node,31,NODE 11,Air,3
 Node,32,NODE 21,Air,6
 Node,33,NODE 20,Air,6
 Node,34,NODE 19,Air,5
 Node,35,NODE 18,Air,9
 Node,36,NODE 71,Air,3
 Node,37,NODE 81,Air,6
 Node,38,NODE 80,Air,6
 Node,39,NODE 79,Air,5
 Node,40,NODE 78,Air,9
 Node,41,NODE 23,Air,3
 Node,42,NODE 33,Air,6
 Node,43,NODE 32,Air,6
 Node,44,NODE 31,Air,5
 Node,45,NODE 30,Air,9
 Node,46,NODE 35,Air,3
 Node,47,NODE 45,Air,6
 Node,48,NODE 44,Air,6
 Node,49,NODE 43,Air,5
 Node,50,NODE 42,Air,9
 Node,51,NODE 47,Air,3
 Node,52,NODE 57,Air,6
 Node,53,NODE 56,Air,6
 Node,54,NODE 55,Air,5
 Node,55,NODE 54,Air,9
 Node,56,NODE 59,Air,3
 Node,57,NODE 69,Air,6
 Node,58,NODE 68,Air,6
 Node,59,NODE 67,Air,5
 Node,60,NODE 66,Air,9
 Node,61,NODE 83,Air,3
 Node,62,NODE 93,Air,6
 Node,63,NODE 92,Air,6
 Node,64,NODE 91,Air,5
 Node,65,NODE 90,Air,9
 Node,66,NODE 95,Air,3
 Node,67,NODE 105,Air,6
 Node,68,NODE 104,Air,6
 Node,69,NODE 103,Air,5
 Node,70,NODE 102,Air,9
 Node,71,NODE 107,Air,3
 Node,72,NODE 117,Air,6
 Node,73,NODE 116,Air,6
 Node,74,NODE 115,Air,5
 Node,75,NODE 114,Air,9
 Node,76,NODE 119,Air,3
 Node,77,NODE 129,Air,6
 Node,78,NODE 128,Air,6
 Node,79,NODE 127,Air,5
 Node,80,NODE 126,Air,9
 Node,81,NODE 131,Water,2
 Node,82,NODE 137,Water,1
 Node,83,NODE 133,Water,1
 Node,84,NODE 138,Water,1
 Node,85,NODE 139,Water,1
 Node,86,NODE 140,Water,1
 Node,87,NODE 142,Water,1
 Node,88,NODE 132,Water,4
 Node,89,NODE 134,Water,2
 Node,90,NODE 143,Water,1
 Node,91,NODE 136,Water,1
 Node,92,NODE 141,Water,1
 Node,93,NODE 145,Water,1
 Node,94,NODE 146,Water,1
 Node,95,LGSTORE1 ZN SERVICE WATER LOOP DEMAND BYPASS PIPE INLET NODE,Water,1
 Node,96,LGSTORE1 ZN SERVICE WATER LOOP DEMAND BYPASS PIPE OUTLET NODE,Water,1
 Node,97,NODE 144,Water,1
 Node,98,NODE 135,Water,2
 Node,99,NODE 147,Water,2
 Node,100,NODE 153,Water,1
 Node,101,NODE 149,Water,1
 Node,102,NODE 154,Water,1
 Node,103,NODE 155,Water,1
 Node,104,NODE 156,Water,1
 Node,105,NODE 158,Water,1
 Node,106,NODE 148,Water,4
 Node,107,NODE 150,Water,2
 Node,108,NODE 159,Water,1
 Node,109,NODE 152,Water,1
 Node,110,NODE 157,Water,1
 Node,111,NODE 161,Water,1
 Node,112,NODE 162,Water,1
 Node,113,LGSTORE2 ZN SERVICE WATER LOOP DEMAND BYPASS PIPE INLET NODE,Water,1
 Node,114,LGSTORE2 ZN SERVICE WATER LOOP DEMAND BYPASS PIPE OUTLET NODE,Water,1
 Node,115,NODE 160,Water,1
 Node,116,NODE 151,Water,2
 Node,117,NODE 163,Water,2
 Node,118,NODE 169,Water,1
 Node,119,NODE 165,Water,1
 Node,120,NODE 170,Water,1
 Node,121,NODE 171,Water,1
 Node,122,NODE 172,Water,1
 Node,123,NODE 174,Water,1
 Node,124,NODE 164,Water,4
 Node,125,NODE 166,Water,2
 Node,126,NODE 175,Water,1
 Node,127,NODE 168,Water,1
 Node,128,NODE 173,Water,1
 Node,129,NODE 177,Water,1
 Node,130,NODE 178,Water,1
 Node,131,SMSTORE1 ZN SERVICE WATER LOOP DEMAND BYPASS PIPE INLET NODE,Water,1
 Node,132,SMSTORE1 ZN SERVICE WATER LOOP DEMAND BYPASS PIPE OUTLET NODE,Water,1
 Node,133,NODE 176,Water,1
 Node,134,NODE 167,Water,2
 Node,135,NODE 179,Water,2
 Node,136,NODE 185,Water,1
 Node,137,NODE 181,Water,1
 Node,138,NODE 186,Water,1
 Node,139,NODE 187,Water,1
 Node,140,NODE 188,Water,1
 Node,141,NODE 190,Water,1
 Node,142,NODE 180,Water,4
 Node,143,NODE 182,Water,2
 Node,144,NODE 191,Water,1
 Node,145,NODE 184,Water,1
 Node,146,NODE 189,Water,1
 Node,147,NODE 193,Water,1
 Node,148,NODE 194,Water,1
 Node,149,SMSTORE2 ZN SERVICE WATER LOOP DEMAND BYPASS PIPE INLET NODE,Water,1
 Node,150,SMSTORE2 ZN SERVICE WATER LOOP DEMAND BYPASS PIPE OUTLET NODE,Water,1
 Node,151,NODE 192,Water,1
 Node,152,NODE 183,Water,2
 Node,153,NODE 195,Water,2
 Node,154,NODE 201,Water,1
 Node,155,NODE 197,Water,1
 Node,156,NODE 202,Water,1
 Node,157,NODE 203,Water,1
 Node,158,NODE 204,Water,1
 Node,159,NODE 206,Water,1
 Node,160,NODE 196,Water,4
 Node,161,NODE 198,Water,2
 Node,162,NODE 207,Water,1
 Node,163,NODE 200,Water,1
 Node,164,NODE 205,Water,1
 Node,165,NODE 209,Water,1
 Node,166,NODE 210,Water,1
 Node,167,SMSTORE3 ZN SERVICE WATER LOOP DEMAND BYPASS PIPE INLET NODE,Water,1
 Node,168,SMSTORE3 ZN SERVICE WATER LOOP DEMAND BYPASS PIPE OUTLET NODE,Water,1
 Node,169,NODE 208,Water,1
 Node,170,NODE 199,Water,2
 Node,171,NODE 211,Water,2
 Node,172,NODE 217,Water,1
 Node,173,NODE 213,Water,1
 Node,174,NODE 218,Water,1
 Node,175,NODE 219,Water,1
 Node,176,NODE 220,Water,1
 Node,177,NODE 222,Water,1
 Node,178,NODE 212,Water,4
 Node,179,NODE 214,Water,2
 Node,180,NODE 223,Water,1
 Node,181,NODE 216,Water,1
 Node,182,NODE 221,Water,1
 Node,183,NODE 225,Water,1
 Node,184,NODE 226,Water,1
 Node,185,SMSTORE5 ZN SERVICE WATER LOOP DEMAND BYPASS PIPE INLET NODE,Water,1
 Node,186,SMSTORE5 ZN SERVICE WATER LOOP DEMAND BYPASS PIPE OUTLET NODE,Water,1
 Node,187,NODE 224,Water,1
 Node,188,NODE 215,Water,2
 Node,189,NODE 227,Water,2
 Node,190,NODE 233,Water,1
 Node,191,NODE 229,Water,1
 Node,192,NODE 234,Water,1
 Node,193,NODE 235,Water,1
 Node,194,NODE 236,Water,1
 Node,195,NODE 238,Water,1
 Node,196,NODE 228,Water,4
 Node,197,NODE 230,Water,2
 Node,198,NODE 239,Water,1
 Node,199,NODE 232,Water,1
 Node,200,NODE 237,Water,1
 Node,201,NODE 241,Water,1
 Node,202,NODE 242,Water,1
 Node,203,SMSTORE6 ZN SERVICE WATER LOOP DEMAND BYPASS PIPE INLET NODE,Water,1
 Node,204,SMSTORE6 ZN SERVICE WATER LOOP DEMAND BYPASS PIPE OUTLET NODE,Water,1
 Node,205,NODE 240,Water,1
 Node,206,NODE 231,Water,2
 Node,207,NODE 1,Air,1
 Node,208,NODE 22,Air,1
 Node,209,NODE 2,Air,1
 Node,210,NODE 82,Air,1
 Node,211,NODE 3,Air,1
 Node,212,NODE 34,Air,1
 Node,213,NODE 4,Air,1
 Node,214,NODE 46,Air,1
 Node,215,NODE 5,Air,1
 Node,216,NODE 58,Air,1
 Node,217,NODE 6,Air,1
 Node,218,NODE 70,Air,1
 Node,219,NODE 7,Air,1
 Node,220,NODE 94,Air,1
 Node,221,NODE 8,Air,1
 Node,222,NODE 106,Air,1
 Node,223,NODE 9,Air,1
 Node,224,NODE 118,Air,1
 Node,225,NODE 10,Air,1
 Node,226,NODE 130,Air,1
 Node,227,NODE 14,Air,2
 Node,228,NODE 74,Air,2
 Node,229,NODE 26,Air,2
 Node,230,NODE 38,Air,2
 Node,231,NODE 50,Air,2
 Node,232,NODE 62,Air,2
 Node,233,NODE 86,Air,2
 Node,234,NODE 98,Air,2
 Node,235,NODE 110,Air,2
 Node,236,NODE 122,Air,2
 Node,237,NODE 16,Air,2
 Node,238,NODE 76,Air,2
 Node,239,NODE 28,Air,2
 Node,240,NODE 40,Air,2
 Node,241,NODE 52,Air,2
 Node,242,NODE 64,Air,2
 Node,243,NODE 88,Air,2
 Node,244,NODE 100,Air,2
 Node,245,NODE 112,Air,2
 Node,246,NODE 124,Air,2
 Node,247,MODEL OUTDOOR AIR NODE,Air,0
 Node,248,NODE 17,Air,1
 Node,249,NODE 77,Air,1
 Node,250,NODE 29,Air,1
 Node,251,NODE 41,Air,1
 Node,252,NODE 53,Air,1
 Node,253,NODE 65,Air,1
 Node,254,NODE 89,Air,1
 Node,255,NODE 101,Air,1
 Node,256,NODE 113,Air,1
 Node,257,NODE 125,Air,1
! ===============================================================
! Suspicious nodes have 0 references.  It is normal for some nodes, however.
! Listing nodes with 0 references (culled from previous list):
! <Suspicious Node>,<NodeNumber>,<Node Name>,<Node Fluid Type>,<# Times Node Referenced After Definition>
 Suspicious Node,247,MODEL OUTDOOR AIR NODE,Air,0
! ===============================================================
! <#Branch Lists>,<Number of Branch Lists>
 #Branch Lists,24
! <Branch List>,<Branch List Count>,<Branch List Name>,<Loop Name>,<Loop Type>,<Number of Branches>
! <Branch>,<Branch Count>,<Branch Name>,<Loop Name>,<Loop Type>,<Branch Inlet Node Name>,<Branch Outlet Node Name>
 Branch List,1,LGSTORE1 ZN PSZ-AC_1 SUPPLY BRANCHES,LGSTORE1 ZN PSZ-AC_1,Air,1
   Branch,1,LGSTORE1 ZN PSZ-AC_1 MAIN BRANCH,LGSTORE1 ZN PSZ-AC_1,Air,NODE 11,NODE 12
 Branch List,2,LGSTORE2 ZN PSZ-AC_6 SUPPLY BRANCHES,LGSTORE2 ZN PSZ-AC_6,Air,1
   Branch,1,LGSTORE2 ZN PSZ-AC_6 MAIN BRANCH,LGSTORE2 ZN PSZ-AC_6,Air,NODE 71,NODE 72
 Branch List,3,SMSTORE1 ZN PSZ-AC_2 SUPPLY BRANCHES,SMSTORE1 ZN PSZ-AC_2,Air,1
   Branch,1,SMSTORE1 ZN PSZ-AC_2 MAIN BRANCH,SMSTORE1 ZN PSZ-AC_2,Air,NODE 23,NODE 24
 Branch List,4,SMSTORE2 ZN PSZ-AC_3 SUPPLY BRANCHES,SMSTORE2 ZN PSZ-AC_3,Air,1
   Branch,1,SMSTORE2 ZN PSZ-AC_3 MAIN BRANCH,SMSTORE2 ZN PSZ-AC_3,Air,NODE 35,NODE 36
 Branch List,5,SMSTORE3 ZN PSZ-AC_4 SUPPLY BRANCHES,SMSTORE3 ZN PSZ-AC_4,Air,1
   Branch,1,SMSTORE3 ZN PSZ-AC_4 MAIN BRANCH,SMSTORE3 ZN PSZ-AC_4,Air,NODE 47,NODE 48
 Branch List,6,SMSTORE4 ZN PSZ-AC_5 SUPPLY BRANCHES,SMSTORE4 ZN PSZ-AC_5,Air,1
   Branch,1,SMSTORE4 ZN PSZ-AC_5 MAIN BRANCH,SMSTORE4 ZN PSZ-AC_5,Air,NODE 59,NODE 60
 Branch List,7,SMSTORE5 ZN PSZ-AC_7 SUPPLY BRANCHES,SMSTORE5 ZN PSZ-AC_7,Air,1
   Branch,1,SMSTORE5 ZN PSZ-AC_7 MAIN BRANCH,SMSTORE5 ZN PSZ-AC_7,Air,NODE 83,NODE 84
 Branch List,8,SMSTORE6 ZN PSZ-AC_8 SUPPLY BRANCHES,SMSTORE6 ZN PSZ-AC_8,Air,1
   Branch,1,SMSTORE6 ZN PSZ-AC_8 MAIN BRANCH,SMSTORE6 ZN PSZ-AC_8,Air,NODE 95,NODE 96
 Branch List,9,SMSTORE7 ZN PSZ-AC_9 SUPPLY BRANCHES,SMSTORE7 ZN PSZ-AC_9,Air,1
   Branch,1,SMSTORE7 ZN PSZ-AC_9 MAIN BRANCH,SMSTORE7 ZN PSZ-AC_9,Air,NODE 107,NODE 108
 Branch List,10,SMSTORE8 ZN PSZ-AC_10 SUPPLY BRANCHES,SMSTORE8 ZN PSZ-AC_10,Air,1
   Branch,1,SMSTORE8 ZN PSZ-AC_10 MAIN BRANCH,SMSTORE8 ZN PSZ-AC_10,Air,NODE 119,NODE 120
 Branch List,11,LGSTORE1 ZN SERVICE WATER LOOP SUPPLY BRANCHES,LGSTORE1 ZN SERVICE WATER LOOP,Plant Supply,4
   Branch,1,LGSTORE1 ZN SERVICE WATER LOOP SUPPLY INLET BRANCH,LGSTORE1 ZN SERVICE WATER LOOP,Plant Supply,NODE 131,NODE 137
   Branch,2,LGSTORE1 ZN SERVICE WATER LOOP SUPPLY BRANCH 1,LGSTORE1 ZN SERVICE WATER LOOP,Plant Supply,NODE 133,NODE 138
   Branch,3,LGSTORE1 ZN SERVICE WATER LOOP SUPPLY BRANCH 2,LGSTORE1 ZN SERVICE WATER LOOP,Plant Supply,NODE 139,NODE 140
   Branch,4,LGSTORE1 ZN SERVICE WATER LOOP SUPPLY OUTLET BRANCH,LGSTORE1 ZN SERVICE WATER LOOP,Plant Supply,NODE 142,NODE 132
 Branch List,12,LGSTORE1 ZN SERVICE WATER LOOP DEMAND BRANCHES,LGSTORE1 ZN SERVICE WATER LOOP,Plant Demand,5
   Branch,1,LGSTORE1 ZN SERVICE WATER LOOP DEMAND INLET BRANCH,LGSTORE1 ZN SERVICE WATER LOOP,Plant Demand,NODE 134,NODE 143
   Branch,2,LGSTORE1 ZN SERVICE WATER LOOP DEMAND BRANCH 1,LGSTORE1 ZN SERVICE WATER LOOP,Plant Demand,NODE 136,NODE 141
   Branch,3,LGSTORE1 ZN SERVICE WATER LOOP DEMAND BRANCH 2,LGSTORE1 ZN SERVICE WATER LOOP,Plant Demand,NODE 145,NODE 146
   Branch,4,LGSTORE1 ZN SERVICE WATER LOOP DEMAND BYPASS BRANCH,LGSTORE1 ZN SERVICE WATER LOOP,Plant Demand,LGSTORE1 ZN SERVICE WATER LOOP DEMAND BYPASS PIPE INLET NODE,LGSTORE1 ZN SERVICE WATER LOOP DEMAND BYPASS PIPE OUTLET NODE
   Branch,5,LGSTORE1 ZN SERVICE WATER LOOP DEMAND OUTLET BRANCH,LGSTORE1 ZN SERVICE WATER LOOP,Plant Demand,NODE 144,NODE 135
 Branch List,13,LGSTORE2 ZN SERVICE WATER LOOP SUPPLY BRANCHES,LGSTORE2 ZN SERVICE WATER LOOP,Plant Supply,4
   Branch,1,LGSTORE2 ZN SERVICE WATER LOOP SUPPLY INLET BRANCH,LGSTORE2 ZN SERVICE WATER LOOP,Plant Supply,NODE 147,NODE 153
   Branch,2,LGSTORE2 ZN SERVICE WATER LOOP SUPPLY BRANCH 1,LGSTORE2 ZN SERVICE WATER LOOP,Plant Supply,NODE 149,NODE 154
   Branch,3,LGSTORE2 ZN SERVICE WATER LOOP SUPPLY BRANCH 2,LGSTORE2 ZN SERVICE WATER LOOP,Plant Supply,NODE 155,NODE 156
   Branch,4,LGSTORE2 ZN SERVICE WATER LOOP SUPPLY OUTLET BRANCH,LGSTORE2 ZN SERVICE WATER LOOP,Plant Supply,NODE 158,NODE 148
 Branch List,14,LGSTORE2 ZN SERVICE WATER LOOP DEMAND BRANCHES,LGSTORE2 ZN SERVICE WATER LOOP,Plant Demand,5
   Branch,1,LGSTORE2 ZN SERVICE WATER LOOP DEMAND INLET BRANCH,LGSTORE2 ZN SERVICE WATER LOOP,Plant Demand,NODE 150,NODE 159
   Branch,2,LGSTORE2 ZN SERVICE WATER LOOP DEMAND BRANCH 1,LGSTORE2 ZN SERVICE WATER LOOP,Plant Demand,NODE 152,NODE 157
   Branch,3,LGSTORE2 ZN SERVICE WATER LOOP DEMAND BRANCH 2,LGSTORE2 ZN SERVICE WATER LOOP,Plant Demand,NODE 161,NODE 162
   Branch,4,LGSTORE2 ZN SERVICE WATER LOOP DEMAND BYPASS BRANCH,LGSTORE2 ZN SERVICE WATER LOOP,Plant Demand,LGSTORE2 ZN SERVICE WATER LOOP DEMAND BYPASS PIPE INLET NODE,LGSTORE2 ZN SERVICE WATER LOOP DEMAND BYPASS PIPE OUTLET NODE
   Branch,5,LGSTORE2 ZN SERVICE WATER LOOP DEMAND OUTLET BRANCH,LGSTORE2 ZN SERVICE WATER LOOP,Plant Demand,NODE 160,NODE 151
 Branch List,15,SMSTORE1 ZN SERVICE WATER LOOP SUPPLY BRANCHES,SMSTORE1 ZN SERVICE WATER LOOP,Plant Supply,4
   Branch,1,SMSTORE1 ZN SERVICE WATER LOOP SUPPLY INLET BRANCH,SMSTORE1 ZN SERVICE WATER LOOP,Plant Supply,NODE 163,NODE 169
   Branch,2,SMSTORE1 ZN SERVICE WATER LOOP SUPPLY BRANCH 1,SMSTORE1 ZN SERVICE WATER LOOP,Plant Supply,NODE 165,NODE 170
   Branch,3,SMSTORE1 ZN SERVICE WATER LOOP SUPPLY BRANCH 2,SMSTORE1 ZN SERVICE WATER LOOP,Plant Supply,NODE 171,NODE 172
   Branch,4,SMSTORE1 ZN SERVICE WATER LOOP SUPPLY OUTLET BRANCH,SMSTORE1 ZN SERVICE WATER LOOP,Plant Supply,NODE 174,NODE 164
 Branch List,16,SMSTORE1 ZN SERVICE WATER LOOP DEMAND BRANCHES,SMSTORE1 ZN SERVICE WATER LOOP,Plant Demand,5
   Branch,1,SMSTORE1 ZN SERVICE WATER LOOP DEMAND INLET BRANCH,SMSTORE1 ZN SERVICE WATER LOOP,Plant Demand,NODE 166,NODE 175
   Branch,2,SMSTORE1 ZN SERVICE WATER LOOP DEMAND BRANCH 1,SMSTORE1 ZN SERVICE WATER LOOP,Plant Demand,NODE 168,NODE 173
   Branch,3,SMSTORE1 ZN SERVICE WATER LOOP DEMAND BRANCH 2,SMSTORE1 ZN SERVICE WATER LOOP,Plant Demand,NODE 177,NODE 178
   Branch,4,SMSTORE1 ZN SERVICE WATER LOOP DEMAND BYPASS BRANCH,SMSTORE1 ZN SERVICE WATER LOOP,Plant Demand,SMSTORE1 ZN SERVICE WATER LOOP DEMAND BYPASS PIPE INLET NODE,SMSTORE1 ZN SERVICE WATER LOOP DEMAND BYPASS PIPE OUTLET NODE
   Branch,5,SMSTORE1 ZN SERVICE WATER LOOP DEMAND OUTLET BRANCH,SMSTORE1 ZN SERVICE WATER LOOP,Plant Demand,NODE 176,NODE 167
 Branch List,17,SMSTORE2 ZN SERVICE WATER LOOP SUPPLY BRANCHES,SMSTORE2 ZN SERVICE WATER LOOP,Plant Supply,4
   Branch,1,SMSTORE2 ZN SERVICE WATER LOOP SUPPLY INLET BRANCH,SMSTORE2 ZN SERVICE WATER LOOP,Plant Supply,NODE 179,NODE 185
   Branch,2,SMSTORE2 ZN SERVICE WATER LOOP SUPPLY BRANCH 1,SMSTORE2 ZN SERVICE WATER LOOP,Plant Supply,NODE 181,NODE 186
   Branch,3,SMSTORE2 ZN SERVICE WATER LOOP SUPPLY BRANCH 2,SMSTORE2 ZN SERVICE WATER LOOP,Plant Supply,NODE 187,NODE 188
   Branch,4,SMSTORE2 ZN SERVICE WATER LOOP SUPPLY OUTLET BRANCH,SMSTORE2 ZN SERVICE WATER LOOP,Plant Supply,NODE 190,NODE 180
 Branch List,18,SMSTORE2 ZN SERVICE WATER LOOP DEMAND BRANCHES,SMSTORE2 ZN SERVICE WATER LOOP,Plant Demand,5
   Branch,1,SMSTORE2 ZN SERVICE WATER LOOP DEMAND INLET BRANCH,SMSTORE2 ZN SERVICE WATER LOOP,Plant Demand,NODE 182,NODE 191
   Branch,2,SMSTORE2 ZN SERVICE WATER LOOP DEMAND BRANCH 1,SMSTORE2 ZN SERVICE WATER LOOP,Plant Demand,NODE 184,NODE 189
   Branch,3,SMSTORE2 ZN SERVICE WATER LOOP DEMAND BRANCH 2,SMSTORE2 ZN SERVICE WATER LOOP,Plant Demand,NODE 193,NODE 194
   Branch,4,SMSTORE2 ZN SERVICE WATER LOOP DEMAND BYPASS BRANCH,SMSTORE2 ZN SERVICE WATER LOOP,Plant Demand,SMSTORE2 ZN SERVICE WATER LOOP DEMAND BYPASS PIPE INLET NODE,SMSTORE2 ZN SERVICE WATER LOOP DEMAND BYPASS PIPE OUTLET NODE
   Branch,5,SMSTORE2 ZN SERVICE WATER LOOP DEMAND OUTLET BRANCH,SMSTORE2 ZN SERVICE WATER LOOP,Plant Demand,NODE 192,NODE 183
 Branch List,19,SMSTORE3 ZN SERVICE WATER LOOP SUPPLY BRANCHES,SMSTORE3 ZN SERVICE WATER LOOP,Plant Supply,4
   Branch,1,SMSTORE3 ZN SERVICE WATER LOOP SUPPLY INLET BRANCH,SMSTORE3 ZN SERVICE WATER LOOP,Plant Supply,NODE 195,NODE 201
   Branch,2,SMSTORE3 ZN SERVICE WATER LOOP SUPPLY BRANCH 1,SMSTORE3 ZN SERVICE WATER LOOP,Plant Supply,NODE 197,NODE 202
   Branch,3,SMSTORE3 ZN SERVICE WATER LOOP SUPPLY BRANCH 2,SMSTORE3 ZN SERVICE WATER LOOP,Plant Supply,NODE 203,NODE 204
   Branch,4,SMSTORE3 ZN SERVICE WATER LOOP SUPPLY OUTLET BRANCH,SMSTORE3 ZN SERVICE WATER LOOP,Plant Supply,NODE 206,NODE 196
 Branch List,20,SMSTORE3 ZN SERVICE WATER LOOP DEMAND BRANCHES,SMSTORE3 ZN SERVICE WATER LOOP,Plant Demand,5
   Branch,1,SMSTORE3 ZN SERVICE WATER LOOP DEMAND INLET BRANCH,SMSTORE3 ZN SERVICE WATER LOOP,Plant Demand,NODE 198,NODE 207
   Branch,2,SMSTORE3 ZN SERVICE WATER LOOP DEMAND BRANCH 1,SMSTORE3 ZN SERVICE WATER LOOP,Plant Demand,NODE 200,NODE 205
   Branch,3,SMSTORE3 ZN SERVICE WATER LOOP DEMAND BRANCH 2,SMSTORE3 ZN SERVICE WATER LOOP,Plant Demand,NODE 209,NODE 210
   Branch,4,SMSTORE3 ZN SERVICE WATER LOOP DEMAND BYPASS BRANCH,SMSTORE3 ZN SERVICE WATER LOOP,Plant Demand,SMSTORE3 ZN SERVICE WATER LOOP DEMAND BYPASS PIPE INLET NODE,SMSTORE3 ZN SERVICE WATER LOOP DEMAND BYPASS PIPE OUTLET NODE
   Branch,5,SMSTORE3 ZN SERVICE WATER LOOP DEMAND OUTLET BRANCH,SMSTORE3 ZN SERVICE WATER LOOP,Plant Demand,NODE 208,NODE 199
 Branch List,21,SMSTORE5 ZN SERVICE WATER LOOP SUPPLY BRANCHES,SMSTORE5 ZN SERVICE WATER LOOP,Plant Supply,4
   Branch,1,SMSTORE5 ZN SERVICE WATER LOOP SUPPLY INLET BRANCH,SMSTORE5 ZN SERVICE WATER LOOP,Plant Supply,NODE 211,NODE 217
   Branch,2,SMSTORE5 ZN SERVICE WATER LOOP SUPPLY BRANCH 1,SMSTORE5 ZN SERVICE WATER LOOP,Plant Supply,NODE 213,NODE 218
   Branch,3,SMSTORE5 ZN SERVICE WATER LOOP SUPPLY BRANCH 2,SMSTORE5 ZN SERVICE WATER LOOP,Plant Supply,NODE 219,NODE 220
   Branch,4,SMSTORE5 ZN SERVICE WATER LOOP SUPPLY OUTLET BRANCH,SMSTORE5 ZN SERVICE WATER LOOP,Plant Supply,NODE 222,NODE 212
 Branch List,22,SMSTORE5 ZN SERVICE WATER LOOP DEMAND BRANCHES,SMSTORE5 ZN SERVICE WATER LOOP,Plant Demand,5
   Branch,1,SMSTORE5 ZN SERVICE WATER LOOP DEMAND INLET BRANCH,SMSTORE5 ZN SERVICE WATER LOOP,Plant Demand,NODE 214,NODE 223
   Branch,2,SMSTORE5 ZN SERVICE WATER LOOP DEMAND BRANCH 1,SMSTORE5 ZN SERVICE WATER LOOP,Plant Demand,NODE 216,NODE 221
   Branch,3,SMSTORE5 ZN SERVICE WATER LOOP DEMAND BRANCH 2,SMSTORE5 ZN SERVICE WATER LOOP,Plant Demand,NODE 225,NODE 226
   Branch,4,SMSTORE5 ZN SERVICE WATER LOOP DEMAND BYPASS BRANCH,SMSTORE5 ZN SERVICE WATER LOOP,Plant Demand,SMSTORE5 ZN SERVICE WATER LOOP DEMAND BYPASS PIPE INLET NODE,SMSTORE5 ZN SERVICE WATER LOOP DEMAND BYPASS PIPE OUTLET NODE
   Branch,5,SMSTORE5 ZN SERVICE WATER LOOP DEMAND OUTLET BRANCH,SMSTORE5 ZN SERVICE WATER LOOP,Plant Demand,NODE 224,NODE 215
 Branch List,23,SMSTORE6 ZN SERVICE WATER LOOP SUPPLY BRANCHES,SMSTORE6 ZN SERVICE WATER LOOP,Plant Supply,4
   Branch,1,SMSTORE6 ZN SERVICE WATER LOOP SUPPLY INLET BRANCH,SMSTORE6 ZN SERVICE WATER LOOP,Plant Supply,NODE 227,NODE 233
   Branch,2,SMSTORE6 ZN SERVICE WATER LOOP SUPPLY BRANCH 1,SMSTORE6 ZN SERVICE WATER LOOP,Plant Supply,NODE 229,NODE 234
   Branch,3,SMSTORE6 ZN SERVICE WATER LOOP SUPPLY BRANCH 2,SMSTORE6 ZN SERVICE WATER LOOP,Plant Supply,NODE 235,NODE 236
   Branch,4,SMSTORE6 ZN SERVICE WATER LOOP SUPPLY OUTLET BRANCH,SMSTORE6 ZN SERVICE WATER LOOP,Plant Supply,NODE 238,NODE 228
 Branch List,24,SMSTORE6 ZN SERVICE WATER LOOP DEMAND BRANCHES,SMSTORE6 ZN SERVICE WATER LOOP,Plant Demand,5
   Branch,1,SMSTORE6 ZN SERVICE WATER LOOP DEMAND INLET BRANCH,SMSTORE6 ZN SERVICE WATER LOOP,Plant Demand,NODE 230,NODE 239
   Branch,2,SMSTORE6 ZN SERVICE WATER LOOP DEMAND BRANCH 1,SMSTORE6 ZN SERVICE WATER LOOP,Plant Demand,NODE 232,NODE 237
   Branch,3,SMSTORE6 ZN SERVICE WATER LOOP DEMAND BRANCH 2,SMSTORE6 ZN SERVICE WATER LOOP,Plant Demand,NODE 241,NODE 242
   Branch,4,SMSTORE6 ZN SERVICE WATER LOOP DEMAND BYPASS BRANCH,SMSTORE6 ZN SERVICE WATER LOOP,Plant Demand,SMSTORE6 ZN SERVICE WATER LOOP DEMAND BYPASS PIPE INLET NODE,SMSTORE6 ZN SERVICE WATER LOOP DEMAND BYPASS PIPE OUTLET NODE
   Branch,5,SMSTORE6 ZN SERVICE WATER LOOP DEMAND OUTLET BRANCH,SMSTORE6 ZN SERVICE WATER LOOP,Plant Demand,NODE 240,NODE 231
! ===============================================================
! <#Supply Air Paths>,<Number of Supply Air Paths>
 #Supply Air Paths,10
! <Supply Air Path>,<Supply Air Path Count>,<Supply Air Path Name>,<AirLoopHVAC Name>
! <#Components on Supply Air Path>,<Number of Components>
! <Supply Air Path Component>,<Component Count>,<Component Type>,<Component Name>,<AirLoopHVAC Name>
! <#Outlet Nodes on Supply Air Path Component>,<Number of Nodes>
! <Supply Air Path Component Nodes>,<Node Count>,<Component Type>,<Component Name>,<Inlet Node Name>,<Outlet Node Name>,<AirLoopHVAC Name>
 Supply Air Path,1,LGSTORE1 ZN PSZ-AC_1 NODE 13 SUPPLY PATH,LGSTORE1 ZN PSZ-AC_1
   #Components on Supply Air Path,1
   Supply Air Path Component,1,AIRLOOPHVAC:ZONESPLITTER,AIR LOOP HVAC ZONE SPLITTER 1,LGSTORE1 ZN PSZ-AC_1
     #Outlet Nodes on Supply Air Path Component,1
     Supply Air Path Component Nodes,1,AIRLOOPHVAC:ZONESPLITTER,AIR LOOP HVAC ZONE SPLITTER 1,NODE 13,NODE 15,LGSTORE1 ZN PSZ-AC_1
! <#Nodes on Supply Air Path>,<Number of Nodes>
! <Supply Air Path Node>,<Node Type>,<Node Count>,<Node Name>,<AirLoopHVAC Name>
#Nodes on Supply Air Path,2
   Supply Air Path Node,Inlet Node,1,NODE 13,LGSTORE1 ZN PSZ-AC_1
   Supply Air Path Node,Outlet Node,2,NODE 15,LGSTORE1 ZN PSZ-AC_1
 Supply Air Path,2,LGSTORE2 ZN PSZ-AC_6 NODE 73 SUPPLY PATH,LGSTORE2 ZN PSZ-AC_6
   #Components on Supply Air Path,1
   Supply Air Path Component,1,AIRLOOPHVAC:ZONESPLITTER,AIR LOOP HVAC ZONE SPLITTER 6,LGSTORE2 ZN PSZ-AC_6
     #Outlet Nodes on Supply Air Path Component,1
     Supply Air Path Component Nodes,1,AIRLOOPHVAC:ZONESPLITTER,AIR LOOP HVAC ZONE SPLITTER 6,NODE 73,NODE 75,LGSTORE2 ZN PSZ-AC_6
! <#Nodes on Supply Air Path>,<Number of Nodes>
! <Supply Air Path Node>,<Node Type>,<Node Count>,<Node Name>,<AirLoopHVAC Name>
#Nodes on Supply Air Path,2
   Supply Air Path Node,Inlet Node,1,NODE 73,LGSTORE2 ZN PSZ-AC_6
   Supply Air Path Node,Outlet Node,2,NODE 75,LGSTORE2 ZN PSZ-AC_6
 Supply Air Path,3,SMSTORE1 ZN PSZ-AC_2 NODE 25 SUPPLY PATH,SMSTORE1 ZN PSZ-AC_2
   #Components on Supply Air Path,1
   Supply Air Path Component,1,AIRLOOPHVAC:ZONESPLITTER,AIR LOOP HVAC ZONE SPLITTER 2,SMSTORE1 ZN PSZ-AC_2
     #Outlet Nodes on Supply Air Path Component,1
     Supply Air Path Component Nodes,1,AIRLOOPHVAC:ZONESPLITTER,AIR LOOP HVAC ZONE SPLITTER 2,NODE 25,NODE 27,SMSTORE1 ZN PSZ-AC_2
! <#Nodes on Supply Air Path>,<Number of Nodes>
! <Supply Air Path Node>,<Node Type>,<Node Count>,<Node Name>,<AirLoopHVAC Name>
#Nodes on Supply Air Path,2
   Supply Air Path Node,Inlet Node,1,NODE 25,SMSTORE1 ZN PSZ-AC_2
   Supply Air Path Node,Outlet Node,2,NODE 27,SMSTORE1 ZN PSZ-AC_2
 Supply Air Path,4,SMSTORE2 ZN PSZ-AC_3 NODE 37 SUPPLY PATH,SMSTORE2 ZN PSZ-AC_3
   #Components on Supply Air Path,1
   Supply Air Path Component,1,AIRLOOPHVAC:ZONESPLITTER,AIR LOOP HVAC ZONE SPLITTER 3,SMSTORE2 ZN PSZ-AC_3
     #Outlet Nodes on Supply Air Path Component,1
     Supply Air Path Component Nodes,1,AIRLOOPHVAC:ZONESPLITTER,AIR LOOP HVAC ZONE SPLITTER 3,NODE 37,NODE 39,SMSTORE2 ZN PSZ-AC_3
! <#Nodes on Supply Air Path>,<Number of Nodes>
! <Supply Air Path Node>,<Node Type>,<Node Count>,<Node Name>,<AirLoopHVAC Name>
#Nodes on Supply Air Path,2
   Supply Air Path Node,Inlet Node,1,NODE 37,SMSTORE2 ZN PSZ-AC_3
   Supply Air Path Node,Outlet Node,2,NODE 39,SMSTORE2 ZN PSZ-AC_3
 Supply Air Path,5,SMSTORE3 ZN PSZ-AC_4 NODE 49 SUPPLY PATH,SMSTORE3 ZN PSZ-AC_4
   #Components on Supply Air Path,1
   Supply Air Path Component,1,AIRLOOPHVAC:ZONESPLITTER,AIR LOOP HVAC ZONE SPLITTER 4,SMSTORE3 ZN PSZ-AC_4
     #Outlet Nodes on Supply Air Path Component,1
     Supply Air Path Component Nodes,1,AIRLOOPHVAC:ZONESPLITTER,AIR LOOP HVAC ZONE SPLITTER 4,NODE 49,NODE 51,SMSTORE3 ZN PSZ-AC_4
! <#Nodes on Supply Air Path>,<Number of Nodes>
! <Supply Air Path Node>,<Node Type>,<Node Count>,<Node Name>,<AirLoopHVAC Name>
#Nodes on Supply Air Path,2
   Supply Air Path Node,Inlet Node,1,NODE 49,SMSTORE3 ZN PSZ-AC_4
   Supply Air Path Node,Outlet Node,2,NODE 51,SMSTORE3 ZN PSZ-AC_4
 Supply Air Path,6,SMSTORE4 ZN PSZ-AC_5 NODE 61 SUPPLY PATH,SMSTORE4 ZN PSZ-AC_5
   #Components on Supply Air Path,1
   Supply Air Path Component,1,AIRLOOPHVAC:ZONESPLITTER,AIR LOOP HVAC ZONE SPLITTER 5,SMSTORE4 ZN PSZ-AC_5
     #Outlet Nodes on Supply Air Path Component,1
     Supply Air Path Component Nodes,1,AIRLOOPHVAC:ZONESPLITTER,AIR LOOP HVAC ZONE SPLITTER 5,NODE 61,NODE 63,SMSTORE4 ZN PSZ-AC_5
! <#Nodes on Supply Air Path>,<Number of Nodes>
! <Supply Air Path Node>,<Node Type>,<Node Count>,<Node Name>,<AirLoopHVAC Name>
#Nodes on Supply Air Path,2
   Supply Air Path Node,Inlet Node,1,NODE 61,SMSTORE4 ZN PSZ-AC_5
   Supply Air Path Node,Outlet Node,2,NODE 63,SMSTORE4 ZN PSZ-AC_5
 Supply Air Path,7,SMSTORE5 ZN PSZ-AC_7 NODE 85 SUPPLY PATH,SMSTORE5 ZN PSZ-AC_7
   #Components on Supply Air Path,1
   Supply Air Path Component,1,AIRLOOPHVAC:ZONESPLITTER,AIR LOOP HVAC ZONE SPLITTER 7,SMSTORE5 ZN PSZ-AC_7
     #Outlet Nodes on Supply Air Path Component,1
     Supply Air Path Component Nodes,1,AIRLOOPHVAC:ZONESPLITTER,AIR LOOP HVAC ZONE SPLITTER 7,NODE 85,NODE 87,SMSTORE5 ZN PSZ-AC_7
! <#Nodes on Supply Air Path>,<Number of Nodes>
! <Supply Air Path Node>,<Node Type>,<Node Count>,<Node Name>,<AirLoopHVAC Name>
#Nodes on Supply Air Path,2
   Supply Air Path Node,Inlet Node,1,NODE 85,SMSTORE5 ZN PSZ-AC_7
   Supply Air Path Node,Outlet Node,2,NODE 87,SMSTORE5 ZN PSZ-AC_7
 Supply Air Path,8,SMSTORE6 ZN PSZ-AC_8 NODE 97 SUPPLY PATH,SMSTORE6 ZN PSZ-AC_8
   #Components on Supply Air Path,1
   Supply Air Path Component,1,AIRLOOPHVAC:ZONESPLITTER,AIR LOOP HVAC ZONE SPLITTER 8,SMSTORE6 ZN PSZ-AC_8
     #Outlet Nodes on Supply Air Path Component,1
     Supply Air Path Component Nodes,1,AIRLOOPHVAC:ZONESPLITTER,AIR LOOP HVAC ZONE SPLITTER 8,NODE 97,NODE 99,SMSTORE6 ZN PSZ-AC_8
! <#Nodes on Supply Air Path>,<Number of Nodes>
! <Supply Air Path Node>,<Node Type>,<Node Count>,<Node Name>,<AirLoopHVAC Name>
#Nodes on Supply Air Path,2
   Supply Air Path Node,Inlet Node,1,NODE 97,SMSTORE6 ZN PSZ-AC_8
   Supply Air Path Node,Outlet Node,2,NODE 99,SMSTORE6 ZN PSZ-AC_8
 Supply Air Path,9,SMSTORE7 ZN PSZ-AC_9 NODE 109 SUPPLY PATH,SMSTORE7 ZN PSZ-AC_9
   #Components on Supply Air Path,1
   Supply Air Path Component,1,AIRLOOPHVAC:ZONESPLITTER,AIR LOOP HVAC ZONE SPLITTER 9,SMSTORE7 ZN PSZ-AC_9
     #Outlet Nodes on Supply Air Path Component,1
     Supply Air Path Component Nodes,1,AIRLOOPHVAC:ZONESPLITTER,AIR LOOP HVAC ZONE SPLITTER 9,NODE 109,NODE 111,SMSTORE7 ZN PSZ-AC_9
! <#Nodes on Supply Air Path>,<Number of Nodes>
! <Supply Air Path Node>,<Node Type>,<Node Count>,<Node Name>,<AirLoopHVAC Name>
#Nodes on Supply Air Path,2
   Supply Air Path Node,Inlet Node,1,NODE 109,SMSTORE7 ZN PSZ-AC_9
   Supply Air Path Node,Outlet Node,2,NODE 111,SMSTORE7 ZN PSZ-AC_9
 Supply Air Path,10,SMSTORE8 ZN PSZ-AC_10 NODE 121 SUPPLY PATH,SMSTORE8 ZN PSZ-AC_10
   #Components on Supply Air Path,1
   Supply Air Path Component,1,AIRLOOPHVAC:ZONESPLITTER,AIR LOOP HVAC ZONE SPLITTER 10,SMSTORE8 ZN PSZ-AC_10
     #Outlet Nodes on Supply Air Path Component,1
     Supply Air Path Component Nodes,1,AIRLOOPHVAC:ZONESPLITTER,AIR LOOP HVAC ZONE SPLITTER 10,NODE 121,NODE 123,SMSTORE8 ZN PSZ-AC_10
! <#Nodes on Supply Air Path>,<Number of Nodes>
! <Supply Air Path Node>,<Node Type>,<Node Count>,<Node Name>,<AirLoopHVAC Name>
#Nodes on Supply Air Path,2
   Supply Air Path Node,Inlet Node,1,NODE 121,SMSTORE8 ZN PSZ-AC_10
   Supply Air Path Node,Outlet Node,2,NODE 123,SMSTORE8 ZN PSZ-AC_10
! ===============================================================
! <#Return Air Paths>,<Number of Return Air Paths>
 #Return Air Paths,10
! <Return Air Path>,<Return Air Path Count>,<Return Air Path Name>,<AirLoopHVAC Name>
! <#Components on Return Air Path>,<Number of Components>
! <Return Air Path Component>,<Component Count>,<Component Type>,<Component Name>,<AirLoopHVAC Name>
! <#Inlet Nodes on Return Air Path Component>,<Number of Nodes>
! <Return Air Path Component Nodes>,<Node Count>,<Component Type>,<Component Name>,<Inlet Node Name>,<Outlet Node Name>,<AirLoopHVAC Name>
 Return Air Path,1,LGSTORE1 ZN PSZ-AC_1 RETURN PATH,LGSTORE1 ZN PSZ-AC_1
   #Components on Return Air Path,1
   Return Air Path Component,1,AIRLOOPHVAC:ZONEMIXER,AIR LOOP HVAC ZONE MIXER 1,LGSTORE1 ZN PSZ-AC_1
     #Inlet Nodes on Return Air Path Component,1
     Return Air Path Component Nodes,1,AIRLOOPHVAC:ZONEMIXER,AIR LOOP HVAC ZONE MIXER 1,NODE 22,NODE 14,LGSTORE1 ZN PSZ-AC_1
! <#Nodes on Return Air Path>,<Number of Nodes>
! <Return Air Path Node>,<Node Type>,<Node Count>,<Node Name>,<AirLoopHVAC Name>
   #Nodes on Return Air Path,2
   Return Air Path Node,Outlet Node,1,NODE 14,LGSTORE1 ZN PSZ-AC_1
   Return Air Path Node,Inlet Node,2,NODE 22,LGSTORE1 ZN PSZ-AC_1
 Return Air Path,2,LGSTORE2 ZN PSZ-AC_6 RETURN PATH,LGSTORE2 ZN PSZ-AC_6
   #Components on Return Air Path,1
   Return Air Path Component,1,AIRLOOPHVAC:ZONEMIXER,AIR LOOP HVAC ZONE MIXER 6,LGSTORE2 ZN PSZ-AC_6
     #Inlet Nodes on Return Air Path Component,1
     Return Air Path Component Nodes,1,AIRLOOPHVAC:ZONEMIXER,AIR LOOP HVAC ZONE MIXER 6,NODE 82,NODE 74,LGSTORE2 ZN PSZ-AC_6
! <#Nodes on Return Air Path>,<Number of Nodes>
! <Return Air Path Node>,<Node Type>,<Node Count>,<Node Name>,<AirLoopHVAC Name>
   #Nodes on Return Air Path,2
   Return Air Path Node,Outlet Node,1,NODE 74,LGSTORE2 ZN PSZ-AC_6
   Return Air Path Node,Inlet Node,2,NODE 82,LGSTORE2 ZN PSZ-AC_6
 Return Air Path,3,SMSTORE1 ZN PSZ-AC_2 RETURN PATH,SMSTORE1 ZN PSZ-AC_2
   #Components on Return Air Path,1
   Return Air Path Component,1,AIRLOOPHVAC:ZONEMIXER,AIR LOOP HVAC ZONE MIXER 2,SMSTORE1 ZN PSZ-AC_2
     #Inlet Nodes on Return Air Path Component,1
     Return Air Path Component Nodes,1,AIRLOOPHVAC:ZONEMIXER,AIR LOOP HVAC ZONE MIXER 2,NODE 34,NODE 26,SMSTORE1 ZN PSZ-AC_2
! <#Nodes on Return Air Path>,<Number of Nodes>
! <Return Air Path Node>,<Node Type>,<Node Count>,<Node Name>,<AirLoopHVAC Name>
   #Nodes on Return Air Path,2
   Return Air Path Node,Outlet Node,1,NODE 26,SMSTORE1 ZN PSZ-AC_2
   Return Air Path Node,Inlet Node,2,NODE 34,SMSTORE1 ZN PSZ-AC_2
 Return Air Path,4,SMSTORE2 ZN PSZ-AC_3 RETURN PATH,SMSTORE2 ZN PSZ-AC_3
   #Components on Return Air Path,1
   Return Air Path Component,1,AIRLOOPHVAC:ZONEMIXER,AIR LOOP HVAC ZONE MIXER 3,SMSTORE2 ZN PSZ-AC_3
     #Inlet Nodes on Return Air Path Component,1
     Return Air Path Component Nodes,1,AIRLOOPHVAC:ZONEMIXER,AIR LOOP HVAC ZONE MIXER 3,NODE 46,NODE 38,SMSTORE2 ZN PSZ-AC_3
! <#Nodes on Return Air Path>,<Number of Nodes>
! <Return Air Path Node>,<Node Type>,<Node Count>,<Node Name>,<AirLoopHVAC Name>
   #Nodes on Return Air Path,2
   Return Air Path Node,Outlet Node,1,NODE 38,SMSTORE2 ZN PSZ-AC_3
   Return Air Path Node,Inlet Node,2,NODE 46,SMSTORE2 ZN PSZ-AC_3
 Return Air Path,5,SMSTORE3 ZN PSZ-AC_4 RETURN PATH,SMSTORE3 ZN PSZ-AC_4
   #Components on Return Air Path,1
   Return Air Path Component,1,AIRLOOPHVAC:ZONEMIXER,AIR LOOP HVAC ZONE MIXER 4,SMSTORE3 ZN PSZ-AC_4
     #Inlet Nodes on Return Air Path Component,1
     Return Air Path Component Nodes,1,AIRLOOPHVAC:ZONEMIXER,AIR LOOP HVAC ZONE MIXER 4,NODE 58,NODE 50,SMSTORE3 ZN PSZ-AC_4
! <#Nodes on Return Air Path>,<Number of Nodes>
! <Return Air Path Node>,<Node Type>,<Node Count>,<Node Name>,<AirLoopHVAC Name>
   #Nodes on Return Air Path,2
   Return Air Path Node,Outlet Node,1,NODE 50,SMSTORE3 ZN PSZ-AC_4
   Return Air Path Node,Inlet Node,2,NODE 58,SMSTORE3 ZN PSZ-AC_4
 Return Air Path,6,SMSTORE4 ZN PSZ-AC_5 RETURN PATH,SMSTORE4 ZN PSZ-AC_5
   #Components on Return Air Path,1
   Return Air Path Component,1,AIRLOOPHVAC:ZONEMIXER,AIR LOOP HVAC ZONE MIXER 5,SMSTORE4 ZN PSZ-AC_5
     #Inlet Nodes on Return Air Path Component,1
     Return Air Path Component Nodes,1,AIRLOOPHVAC:ZONEMIXER,AIR LOOP HVAC ZONE MIXER 5,NODE 70,NODE 62,SMSTORE4 ZN PSZ-AC_5
! <#Nodes on Return Air Path>,<Number of Nodes>
! <Return Air Path Node>,<Node Type>,<Node Count>,<Node Name>,<AirLoopHVAC Name>
   #Nodes on Return Air Path,2
   Return Air Path Node,Outlet Node,1,NODE 62,SMSTORE4 ZN PSZ-AC_5
   Return Air Path Node,Inlet Node,2,NODE 70,SMSTORE4 ZN PSZ-AC_5
 Return Air Path,7,SMSTORE5 ZN PSZ-AC_7 RETURN PATH,SMSTORE5 ZN PSZ-AC_7
   #Components on Return Air Path,1
   Return Air Path Component,1,AIRLOOPHVAC:ZONEMIXER,AIR LOOP HVAC ZONE MIXER 7,SMSTORE5 ZN PSZ-AC_7
     #Inlet Nodes on Return Air Path Component,1
     Return Air Path Component Nodes,1,AIRLOOPHVAC:ZONEMIXER,AIR LOOP HVAC ZONE MIXER 7,NODE 94,NODE 86,SMSTORE5 ZN PSZ-AC_7
! <#Nodes on Return Air Path>,<Number of Nodes>
! <Return Air Path Node>,<Node Type>,<Node Count>,<Node Name>,<AirLoopHVAC Name>
   #Nodes on Return Air Path,2
   Return Air Path Node,Outlet Node,1,NODE 86,SMSTORE5 ZN PSZ-AC_7
   Return Air Path Node,Inlet Node,2,NODE 94,SMSTORE5 ZN PSZ-AC_7
 Return Air Path,8,SMSTORE6 ZN PSZ-AC_8 RETURN PATH,SMSTORE6 ZN PSZ-AC_8
   #Components on Return Air Path,1
   Return Air Path Component,1,AIRLOOPHVAC:ZONEMIXER,AIR LOOP HVAC ZONE MIXER 8,SMSTORE6 ZN PSZ-AC_8
     #Inlet Nodes on Return Air Path Component,1
     Return Air Path Component Nodes,1,AIRLOOPHVAC:ZONEMIXER,AIR LOOP HVAC ZONE MIXER 8,NODE 106,NODE 98,SMSTORE6 ZN PSZ-AC_8
! <#Nodes on Return Air Path>,<Number of Nodes>
! <Return Air Path Node>,<Node Type>,<Node Count>,<Node Name>,<AirLoopHVAC Name>
   #Nodes on Return Air Path,2
   Return Air Path Node,Outlet Node,1,NODE 98,SMSTORE6 ZN PSZ-AC_8
   Return Air Path Node,Inlet Node,2,NODE 106,SMSTORE6 ZN PSZ-AC_8
 Return Air Path,9,SMSTORE7 ZN PSZ-AC_9 RETURN PATH,SMSTORE7 ZN PSZ-AC_9
   #Components on Return Air Path,1
   Return Air Path Component,1,AIRLOOPHVAC:ZONEMIXER,AIR LOOP HVAC ZONE MIXER 9,SMSTORE7 ZN PSZ-AC_9
     #Inlet Nodes on Return Air Path Component,1
     Return Air Path Component Nodes,1,AIRLOOPHVAC:ZONEMIXER,AIR LOOP HVAC ZONE MIXER 9,NODE 118,NODE 110,SMSTORE7 ZN PSZ-AC_9
! <#Nodes on Return Air Path>,<Number of Nodes>
! <Return Air Path Node>,<Node Type>,<Node Count>,<Node Name>,<AirLoopHVAC Name>
   #Nodes on Return Air Path,2
   Return Air Path Node,Outlet Node,1,NODE 110,SMSTORE7 ZN PSZ-AC_9
   Return Air Path Node,Inlet Node,2,NODE 118,SMSTORE7 ZN PSZ-AC_9
 Return Air Path,10,SMSTORE8 ZN PSZ-AC_10 RETURN PATH,SMSTORE8 ZN PSZ-AC_10
   #Components on Return Air Path,1
   Return Air Path Component,1,AIRLOOPHVAC:ZONEMIXER,AIR LOOP HVAC ZONE MIXER 10,SMSTORE8 ZN PSZ-AC_10
     #Inlet Nodes on Return Air Path Component,1
     Return Air Path Component Nodes,1,AIRLOOPHVAC:ZONEMIXER,AIR LOOP HVAC ZONE MIXER 10,NODE 130,NODE 122,SMSTORE8 ZN PSZ-AC_10
! <#Nodes on Return Air Path>,<Number of Nodes>
! <Return Air Path Node>,<Node Type>,<Node Count>,<Node Name>,<AirLoopHVAC Name>
   #Nodes on Return Air Path,2
   Return Air Path Node,Outlet Node,1,NODE 122,SMSTORE8 ZN PSZ-AC_10
   Return Air Path Node,Inlet Node,2,NODE 130,SMSTORE8 ZN PSZ-AC_10
! ===============================================================
! #Outdoor Air Nodes,<Number of Outdoor Air Nodes>
 #Outdoor Air Nodes,11
! <Outdoor Air Node>,<NodeNumber>,<Node Name>
 Outdoor Air Node,237,NODE 16
 Outdoor Air Node,238,NODE 76
 Outdoor Air Node,239,NODE 28
 Outdoor Air Node,240,NODE 40
 Outdoor Air Node,241,NODE 52
 Outdoor Air Node,242,NODE 64
 Outdoor Air Node,243,NODE 88
 Outdoor Air Node,244,NODE 100
 Outdoor Air Node,245,NODE 112
 Outdoor Air Node,246,NODE 124
 Outdoor Air Node,247,MODEL OUTDOOR AIR NODE
! ===============================================================
! <#Component Sets>,<Number of Component Sets>
 #Component Sets,133
! <Component Set>,<Component Set Count>,<Parent Object Type>,<Parent Object Name>,<Component Type>,<Component Name>,<Inlet Node ID>,<Outlet Node ID>,<Description>
 Component Set,1,BRANCH,LGSTORE1 ZN PSZ-AC_1 MAIN BRANCH,AIRLOOPHVAC:OUTDOORAIRSYSTEM,LGSTORE1 ZN PSZ-AC_1 OA SYS,NODE 11,NODE 21,Air Nodes
 Component Set,2,BRANCH,LGSTORE1 ZN PSZ-AC_1 MAIN BRANCH,COILSYSTEM:COOLING:DX,LGSTORE1 ZN PSZ-AC_1 2SPD DX AC CLG COIL 180KBTU/HR 9.7EER COILSYSTEM,NODE 21,NODE 20,Air Nodes
 Component Set,3,BRANCH,LGSTORE1 ZN PSZ-AC_1 MAIN BRANCH,COIL:HEATING:FUEL,LGSTORE1 ZN PSZ-AC_1 GAS HTG COIL,NODE 20,NODE 19,Air Nodes
 Component Set,4,BRANCH,LGSTORE1 ZN PSZ-AC_1 MAIN BRANCH,COIL:HEATING:ELECTRIC,LGSTORE1 ZN PSZ-AC_1 NO BACKUP HEAT,NODE 19,NODE 18,Air Nodes
 Component Set,5,BRANCH,LGSTORE1 ZN PSZ-AC_1 MAIN BRANCH,FAN:CONSTANTVOLUME,LGSTORE1 ZN PSZ-AC_1 FAN,NODE 18,NODE 12,Air Nodes
 Component Set,6,BRANCH,LGSTORE2 ZN PSZ-AC_6 MAIN BRANCH,AIRLOOPHVAC:OUTDOORAIRSYSTEM,LGSTORE2 ZN PSZ-AC_6 OA SYS,NODE 71,NODE 81,Air Nodes
 Component Set,7,BRANCH,LGSTORE2 ZN PSZ-AC_6 MAIN BRANCH,COILSYSTEM:COOLING:DX,LGSTORE2 ZN PSZ-AC_6 2SPD DX AC CLG COIL 159KBTU/HR 9.7EER COILSYSTEM,NODE 81,NODE 80,Air Nodes
 Component Set,8,BRANCH,LGSTORE2 ZN PSZ-AC_6 MAIN BRANCH,COIL:HEATING:FUEL,LGSTORE2 ZN PSZ-AC_6 GAS HTG COIL,NODE 80,NODE 79,Air Nodes
 Component Set,9,BRANCH,LGSTORE2 ZN PSZ-AC_6 MAIN BRANCH,COIL:HEATING:ELECTRIC,LGSTORE2 ZN PSZ-AC_6 NO BACKUP HEAT,NODE 79,NODE 78,Air Nodes
 Component Set,10,BRANCH,LGSTORE2 ZN PSZ-AC_6 MAIN BRANCH,FAN:CONSTANTVOLUME,LGSTORE2 ZN PSZ-AC_6 FAN,NODE 78,NODE 72,Air Nodes
 Component Set,11,BRANCH,SMSTORE1 ZN PSZ-AC_2 MAIN BRANCH,AIRLOOPHVAC:OUTDOORAIRSYSTEM,SMSTORE1 ZN PSZ-AC_2 OA SYS,NODE 23,NODE 33,Air Nodes
 Component Set,12,BRANCH,SMSTORE1 ZN PSZ-AC_2 MAIN BRANCH,COILSYSTEM:COOLING:DX,SMSTORE1 ZN PSZ-AC_2 2SPD DX AC CLG COIL 92KBTU/HR 10.3EER COILSYSTEM,NODE 33,NODE 32,Air Nodes
 Component Set,13,BRANCH,SMSTORE1 ZN PSZ-AC_2 MAIN BRANCH,COIL:HEATING:FUEL,SMSTORE1 ZN PSZ-AC_2 GAS HTG COIL,NODE 32,NODE 31,Air Nodes
 Component Set,14,BRANCH,SMSTORE1 ZN PSZ-AC_2 MAIN BRANCH,COIL:HEATING:ELECTRIC,SMSTORE1 ZN PSZ-AC_2 NO BACKUP HEAT,NODE 31,NODE 30,Air Nodes
 Component Set,15,BRANCH,SMSTORE1 ZN PSZ-AC_2 MAIN BRANCH,FAN:CONSTANTVOLUME,SMSTORE1 ZN PSZ-AC_2 FAN,NODE 30,NODE 24,Air Nodes
 Component Set,16,BRANCH,SMSTORE2 ZN PSZ-AC_3 MAIN BRANCH,AIRLOOPHVAC:OUTDOORAIRSYSTEM,SMSTORE2 ZN PSZ-AC_3 OA SYS,NODE 35,NODE 45,Air Nodes
 Component Set,17,BRANCH,SMSTORE2 ZN PSZ-AC_3 MAIN BRANCH,COILSYSTEM:COOLING:DX,SMSTORE2 ZN PSZ-AC_3 2SPD DX AC CLG COIL 87KBTU/HR 10.3EER COILSYSTEM,NODE 45,NODE 44,Air Nodes
 Component Set,18,BRANCH,SMSTORE2 ZN PSZ-AC_3 MAIN BRANCH,COIL:HEATING:FUEL,SMSTORE2 ZN PSZ-AC_3 GAS HTG COIL,NODE 44,NODE 43,Air Nodes
 Component Set,19,BRANCH,SMSTORE2 ZN PSZ-AC_3 MAIN BRANCH,COIL:HEATING:ELECTRIC,SMSTORE2 ZN PSZ-AC_3 NO BACKUP HEAT,NODE 43,NODE 42,Air Nodes
 Component Set,20,BRANCH,SMSTORE2 ZN PSZ-AC_3 MAIN BRANCH,FAN:CONSTANTVOLUME,SMSTORE2 ZN PSZ-AC_3 FAN,NODE 42,NODE 36,Air Nodes
 Component Set,21,BRANCH,SMSTORE3 ZN PSZ-AC_4 MAIN BRANCH,AIRLOOPHVAC:OUTDOORAIRSYSTEM,SMSTORE3 ZN PSZ-AC_4 OA SYS,NODE 47,NODE 57,Air Nodes
 Component Set,22,BRANCH,SMSTORE3 ZN PSZ-AC_4 MAIN BRANCH,COILSYSTEM:COOLING:DX,SMSTORE3 ZN PSZ-AC_4 2SPD DX AC CLG COIL 87KBTU/HR 10.3EER COILSYSTEM,NODE 57,NODE 56,Air Nodes
 Component Set,23,BRANCH,SMSTORE3 ZN PSZ-AC_4 MAIN BRANCH,COIL:HEATING:FUEL,SMSTORE3 ZN PSZ-AC_4 GAS HTG COIL,NODE 56,NODE 55,Air Nodes
 Component Set,24,BRANCH,SMSTORE3 ZN PSZ-AC_4 MAIN BRANCH,COIL:HEATING:ELECTRIC,SMSTORE3 ZN PSZ-AC_4 NO BACKUP HEAT,NODE 55,NODE 54,Air Nodes
 Component Set,25,BRANCH,SMSTORE3 ZN PSZ-AC_4 MAIN BRANCH,FAN:CONSTANTVOLUME,SMSTORE3 ZN PSZ-AC_4 FAN,NODE 54,NODE 48,Air Nodes
 Component Set,26,BRANCH,SMSTORE4 ZN PSZ-AC_5 MAIN BRANCH,AIRLOOPHVAC:OUTDOORAIRSYSTEM,SMSTORE4 ZN PSZ-AC_5 OA SYS,NODE 59,NODE 69,Air Nodes
 Component Set,27,BRANCH,SMSTORE4 ZN PSZ-AC_5 MAIN BRANCH,COILSYSTEM:COOLING:DX,SMSTORE4 ZN PSZ-AC_5 2SPD DX AC CLG COIL 87KBTU/HR 10.3EER COILSYSTEM,NODE 69,NODE 68,Air Nodes
 Component Set,28,BRANCH,SMSTORE4 ZN PSZ-AC_5 MAIN BRANCH,COIL:HEATING:FUEL,SMSTORE4 ZN PSZ-AC_5 GAS HTG COIL,NODE 68,NODE 67,Air Nodes
 Component Set,29,BRANCH,SMSTORE4 ZN PSZ-AC_5 MAIN BRANCH,COIL:HEATING:ELECTRIC,SMSTORE4 ZN PSZ-AC_5 NO BACKUP HEAT,NODE 67,NODE 66,Air Nodes
 Component Set,30,BRANCH,SMSTORE4 ZN PSZ-AC_5 MAIN BRANCH,FAN:CONSTANTVOLUME,SMSTORE4 ZN PSZ-AC_5 FAN,NODE 66,NODE 60,Air Nodes
 Component Set,31,BRANCH,SMSTORE5 ZN PSZ-AC_7 MAIN BRANCH,AIRLOOPHVAC:OUTDOORAIRSYSTEM,SMSTORE5 ZN PSZ-AC_7 OA SYS,NODE 83,NODE 93,Air Nodes
 Component Set,32,BRANCH,SMSTORE5 ZN PSZ-AC_7 MAIN BRANCH,COILSYSTEM:COOLING:DX,SMSTORE5 ZN PSZ-AC_7 2SPD DX AC CLG COIL 87KBTU/HR 10.3EER COILSYSTEM,NODE 93,NODE 92,Air Nodes
 Component Set,33,BRANCH,SMSTORE5 ZN PSZ-AC_7 MAIN BRANCH,COIL:HEATING:FUEL,SMSTORE5 ZN PSZ-AC_7 GAS HTG COIL,NODE 92,NODE 91,Air Nodes
 Component Set,34,BRANCH,SMSTORE5 ZN PSZ-AC_7 MAIN BRANCH,COIL:HEATING:ELECTRIC,SMSTORE5 ZN PSZ-AC_7 NO BACKUP HEAT,NODE 91,NODE 90,Air Nodes
 Component Set,35,BRANCH,SMSTORE5 ZN PSZ-AC_7 MAIN BRANCH,FAN:CONSTANTVOLUME,SMSTORE5 ZN PSZ-AC_7 FAN,NODE 90,NODE 84,Air Nodes
 Component Set,36,BRANCH,SMSTORE6 ZN PSZ-AC_8 MAIN BRANCH,AIRLOOPHVAC:OUTDOORAIRSYSTEM,SMSTORE6 ZN PSZ-AC_8 OA SYS,NODE 95,NODE 105,Air Nodes
 Component Set,37,BRANCH,SMSTORE6 ZN PSZ-AC_8 MAIN BRANCH,COILSYSTEM:COOLING:DX,SMSTORE6 ZN PSZ-AC_8 2SPD DX AC CLG COIL 87KBTU/HR 10.3EER COILSYSTEM,NODE 105,NODE 104,Air Nodes
 Component Set,38,BRANCH,SMSTORE6 ZN PSZ-AC_8 MAIN BRANCH,COIL:HEATING:FUEL,SMSTORE6 ZN PSZ-AC_8 GAS HTG COIL,NODE 104,NODE 103,Air Nodes
 Component Set,39,BRANCH,SMSTORE6 ZN PSZ-AC_8 MAIN BRANCH,COIL:HEATING:ELECTRIC,SMSTORE6 ZN PSZ-AC_8 NO BACKUP HEAT,NODE 103,NODE 102,Air Nodes
 Component Set,40,BRANCH,SMSTORE6 ZN PSZ-AC_8 MAIN BRANCH,FAN:CONSTANTVOLUME,SMSTORE6 ZN PSZ-AC_8 FAN,NODE 102,NODE 96,Air Nodes
 Component Set,41,BRANCH,SMSTORE7 ZN PSZ-AC_9 MAIN BRANCH,AIRLOOPHVAC:OUTDOORAIRSYSTEM,SMSTORE7 ZN PSZ-AC_9 OA SYS,NODE 107,NODE 117,Air Nodes
 Component Set,42,BRANCH,SMSTORE7 ZN PSZ-AC_9 MAIN BRANCH,COILSYSTEM:COOLING:DX,SMSTORE7 ZN PSZ-AC_9 2SPD DX AC CLG COIL 88KBTU/HR 10.3EER COILSYSTEM,NODE 117,NODE 116,Air Nodes
 Component Set,43,BRANCH,SMSTORE7 ZN PSZ-AC_9 MAIN BRANCH,COIL:HEATING:FUEL,SMSTORE7 ZN PSZ-AC_9 GAS HTG COIL,NODE 116,NODE 115,Air Nodes
 Component Set,44,BRANCH,SMSTORE7 ZN PSZ-AC_9 MAIN BRANCH,COIL:HEATING:ELECTRIC,SMSTORE7 ZN PSZ-AC_9 NO BACKUP HEAT,NODE 115,NODE 114,Air Nodes
 Component Set,45,BRANCH,SMSTORE7 ZN PSZ-AC_9 MAIN BRANCH,FAN:CONSTANTVOLUME,SMSTORE7 ZN PSZ-AC_9 FAN,NODE 114,NODE 108,Air Nodes
 Component Set,46,BRANCH,SMSTORE8 ZN PSZ-AC_10 MAIN BRANCH,AIRLOOPHVAC:OUTDOORAIRSYSTEM,SMSTORE8 ZN PSZ-AC_10 OA SYS,NODE 119,NODE 129,Air Nodes
 Component Set,47,BRANCH,SMSTORE8 ZN PSZ-AC_10 MAIN BRANCH,COILSYSTEM:COOLING:DX,SMSTORE8 ZN PSZ-AC_10 2SPD DX AC CLG COIL 97KBTU/HR 10.3EER COILSYSTEM,NODE 129,NODE 128,Air Nodes
 Component Set,48,BRANCH,SMSTORE8 ZN PSZ-AC_10 MAIN BRANCH,COIL:HEATING:FUEL,SMSTORE8 ZN PSZ-AC_10 GAS HTG COIL,NODE 128,NODE 127,Air Nodes
 Component Set,49,BRANCH,SMSTORE8 ZN PSZ-AC_10 MAIN BRANCH,COIL:HEATING:ELECTRIC,SMSTORE8 ZN PSZ-AC_10 NO BACKUP HEAT,NODE 127,NODE 126,Air Nodes
 Component Set,50,BRANCH,SMSTORE8 ZN PSZ-AC_10 MAIN BRANCH,FAN:CONSTANTVOLUME,SMSTORE8 ZN PSZ-AC_10 FAN,NODE 126,NODE 120,Air Nodes
 Component Set,51,BRANCH,LGSTORE1 ZN SERVICE WATER LOOP SUPPLY INLET BRANCH,PUMP:CONSTANTSPEED,SERVICE WATER LOOP PUMP,NODE 131,NODE 137,Water Nodes
 Component Set,52,BRANCH,LGSTORE1 ZN SERVICE WATER LOOP SUPPLY BRANCH 1,WATERHEATER:MIXED,40GAL ELECTRICITY WATER HEATER - 40KBTU/HR 1.0 THERM EFF,NODE 133,NODE 138,Use Side Water Nodes
 Component Set,53,BRANCH,LGSTORE1 ZN SERVICE WATER LOOP SUPPLY BRANCH 2,PIPE:ADIABATIC,PIPE ADIABATIC 1,NODE 139,NODE 140,Pipe Nodes
 Component Set,54,BRANCH,LGSTORE1 ZN SERVICE WATER LOOP SUPPLY OUTLET BRANCH,PIPE:ADIABATIC,PIPE ADIABATIC 3,NODE 142,NODE 132,Pipe Nodes
 Component Set,55,BRANCH,LGSTORE1 ZN SERVICE WATER LOOP DEMAND INLET BRANCH,PIPE:ADIABATIC,PIPE ADIABATIC 4,NODE 134,NODE 143,Pipe Nodes
 Component Set,56,BRANCH,LGSTORE1 ZN SERVICE WATER LOOP DEMAND BRANCH 1,PIPE:ADIABATIC,PIPE ADIABATIC 2,NODE 136,NODE 141,Pipe Nodes
 Component Set,57,BRANCH,LGSTORE1 ZN SERVICE WATER LOOP DEMAND BRANCH 2,WATERUSE:CONNECTIONS,WATER USE CONNECTIONS 1,NODE 145,NODE 146,DHW Nodes
 Component Set,58,BRANCH,LGSTORE1 ZN SERVICE WATER LOOP DEMAND BYPASS BRANCH,PIPE:ADIABATIC,LGSTORE1 ZN SERVICE WATER LOOP DEMAND BYPASS PIPE,LGSTORE1 ZN SERVICE WATER LOOP DEMAND BYPASS PIPE INLET NODE,LGSTORE1 ZN SERVICE WATER LOOP DEMAND BYPASS PIPE OUTLET NODE,Pipe Nodes
 Component Set,59,BRANCH,LGSTORE1 ZN SERVICE WATER LOOP DEMAND OUTLET BRANCH,PIPE:ADIABATIC,PIPE ADIABATIC 5,NODE 144,NODE 135,Pipe Nodes
 Component Set,60,BRANCH,LGSTORE2 ZN SERVICE WATER LOOP SUPPLY INLET BRANCH,PUMP:CONSTANTSPEED,SERVICE WATER LOOP PUMP 1,NODE 147,NODE 153,Water Nodes
 Component Set,61,BRANCH,LGSTORE2 ZN SERVICE WATER LOOP SUPPLY BRANCH 1,WATERHEATER:MIXED,40GAL ELECTRICITY WATER HEATER - 40KBTU/HR 1 1.0 THERM EFF,NODE 149,NODE 154,Use Side Water Nodes
 Component Set,62,BRANCH,LGSTORE2 ZN SERVICE WATER LOOP SUPPLY BRANCH 2,PIPE:ADIABATIC,PIPE ADIABATIC 6,NODE 155,NODE 156,Pipe Nodes
 Component Set,63,BRANCH,LGSTORE2 ZN SERVICE WATER LOOP SUPPLY OUTLET BRANCH,PIPE:ADIABATIC,PIPE ADIABATIC 8,NODE 158,NODE 148,Pipe Nodes
 Component Set,64,BRANCH,LGSTORE2 ZN SERVICE WATER LOOP DEMAND INLET BRANCH,PIPE:ADIABATIC,PIPE ADIABATIC 9,NODE 150,NODE 159,Pipe Nodes
 Component Set,65,BRANCH,LGSTORE2 ZN SERVICE WATER LOOP DEMAND BRANCH 1,PIPE:ADIABATIC,PIPE ADIABATIC 7,NODE 152,NODE 157,Pipe Nodes
 Component Set,66,BRANCH,LGSTORE2 ZN SERVICE WATER LOOP DEMAND BRANCH 2,WATERUSE:CONNECTIONS,WATER USE CONNECTIONS 2,NODE 161,NODE 162,DHW Nodes
 Component Set,67,BRANCH,LGSTORE2 ZN SERVICE WATER LOOP DEMAND BYPASS BRANCH,PIPE:ADIABATIC,LGSTORE2 ZN SERVICE WATER LOOP DEMAND BYPASS PIPE,LGSTORE2 ZN SERVICE WATER LOOP DEMAND BYPASS PIPE INLET NODE,LGSTORE2 ZN SERVICE WATER LOOP DEMAND BYPASS PIPE OUTLET NODE,Pipe Nodes
 Component Set,68,BRANCH,LGSTORE2 ZN SERVICE WATER LOOP DEMAND OUTLET BRANCH,PIPE:ADIABATIC,PIPE ADIABATIC 10,NODE 160,NODE 151,Pipe Nodes
 Component Set,69,BRANCH,SMSTORE1 ZN SERVICE WATER LOOP SUPPLY INLET BRANCH,PUMP:CONSTANTSPEED,SERVICE WATER LOOP PUMP 2,NODE 163,NODE 169,Water Nodes
 Component Set,70,BRANCH,SMSTORE1 ZN SERVICE WATER LOOP SUPPLY BRANCH 1,WATERHEATER:MIXED,40GAL ELECTRICITY WATER HEATER - 40KBTU/HR 2 1.0 THERM EFF,NODE 165,NODE 170,Use Side Water Nodes
 Component Set,71,BRANCH,SMSTORE1 ZN SERVICE WATER LOOP SUPPLY BRANCH 2,PIPE:ADIABATIC,PIPE ADIABATIC 11,NODE 171,NODE 172,Pipe Nodes
 Component Set,72,BRANCH,SMSTORE1 ZN SERVICE WATER LOOP SUPPLY OUTLET BRANCH,PIPE:ADIABATIC,PIPE ADIABATIC 13,NODE 174,NODE 164,Pipe Nodes
 Component Set,73,BRANCH,SMSTORE1 ZN SERVICE WATER LOOP DEMAND INLET BRANCH,PIPE:ADIABATIC,PIPE ADIABATIC 14,NODE 166,NODE 175,Pipe Nodes
 Component Set,74,BRANCH,SMSTORE1 ZN SERVICE WATER LOOP DEMAND BRANCH 1,PIPE:ADIABATIC,PIPE ADIABATIC 12,NODE 168,NODE 173,Pipe Nodes
 Component Set,75,BRANCH,SMSTORE1 ZN SERVICE WATER LOOP DEMAND BRANCH 2,WATERUSE:CONNECTIONS,WATER USE CONNECTIONS 3,NODE 177,NODE 178,DHW Nodes
 Component Set,76,BRANCH,SMSTORE1 ZN SERVICE WATER LOOP DEMAND BYPASS BRANCH,PIPE:ADIABATIC,SMSTORE1 ZN SERVICE WATER LOOP DEMAND BYPASS PIPE,SMSTORE1 ZN SERVICE WATER LOOP DEMAND BYPASS PIPE INLET NODE,SMSTORE1 ZN SERVICE WATER LOOP DEMAND BYPASS PIPE OUTLET NODE,Pipe Nodes
 Component Set,77,BRANCH,SMSTORE1 ZN SERVICE WATER LOOP DEMAND OUTLET BRANCH,PIPE:ADIABATIC,PIPE ADIABATIC 15,NODE 176,NODE 167,Pipe Nodes
 Component Set,78,BRANCH,SMSTORE2 ZN SERVICE WATER LOOP SUPPLY INLET BRANCH,PUMP:CONSTANTSPEED,SERVICE WATER LOOP PUMP 3,NODE 179,NODE 185,Water Nodes
 Component Set,79,BRANCH,SMSTORE2 ZN SERVICE WATER LOOP SUPPLY BRANCH 1,WATERHEATER:MIXED,40GAL ELECTRICITY WATER HEATER - 40KBTU/HR 3 1.0 THERM EFF,NODE 181,NODE 186,Use Side Water Nodes
 Component Set,80,BRANCH,SMSTORE2 ZN SERVICE WATER LOOP SUPPLY BRANCH 2,PIPE:ADIABATIC,PIPE ADIABATIC 16,NODE 187,NODE 188,Pipe Nodes
 Component Set,81,BRANCH,SMSTORE2 ZN SERVICE WATER LOOP SUPPLY OUTLET BRANCH,PIPE:ADIABATIC,PIPE ADIABATIC 18,NODE 190,NODE 180,Pipe Nodes
 Component Set,82,BRANCH,SMSTORE2 ZN SERVICE WATER LOOP DEMAND INLET BRANCH,PIPE:ADIABATIC,PIPE ADIABATIC 19,NODE 182,NODE 191,Pipe Nodes
 Component Set,83,BRANCH,SMSTORE2 ZN SERVICE WATER LOOP DEMAND BRANCH 1,PIPE:ADIABATIC,PIPE ADIABATIC 17,NODE 184,NODE 189,Pipe Nodes
 Component Set,84,BRANCH,SMSTORE2 ZN SERVICE WATER LOOP DEMAND BRANCH 2,WATERUSE:CONNECTIONS,WATER USE CONNECTIONS 4,NODE 193,NODE 194,DHW Nodes
 Component Set,85,BRANCH,SMSTORE2 ZN SERVICE WATER LOOP DEMAND BYPASS BRANCH,PIPE:ADIABATIC,SMSTORE2 ZN SERVICE WATER LOOP DEMAND BYPASS PIPE,SMSTORE2 ZN SERVICE WATER LOOP DEMAND BYPASS PIPE INLET NODE,SMSTORE2 ZN SERVICE WATER LOOP DEMAND BYPASS PIPE OUTLET NODE,Pipe Nodes
 Component Set,86,BRANCH,SMSTORE2 ZN SERVICE WATER LOOP DEMAND OUTLET BRANCH,PIPE:ADIABATIC,PIPE ADIABATIC 20,NODE 192,NODE 183,Pipe Nodes
 Component Set,87,BRANCH,SMSTORE3 ZN SERVICE WATER LOOP SUPPLY INLET BRANCH,PUMP:CONSTANTSPEED,SERVICE WATER LOOP PUMP 4,NODE 195,NODE 201,Water Nodes
 Component Set,88,BRANCH,SMSTORE3 ZN SERVICE WATER LOOP SUPPLY BRANCH 1,WATERHEATER:MIXED,40GAL ELECTRICITY WATER HEATER - 40KBTU/HR 4 1.0 THERM EFF,NODE 197,NODE 202,Use Side Water Nodes
 Component Set,89,BRANCH,SMSTORE3 ZN SERVICE WATER LOOP SUPPLY BRANCH 2,PIPE:ADIABATIC,PIPE ADIABATIC 21,NODE 203,NODE 204,Pipe Nodes
 Component Set,90,BRANCH,SMSTORE3 ZN SERVICE WATER LOOP SUPPLY OUTLET BRANCH,PIPE:ADIABATIC,PIPE ADIABATIC 23,NODE 206,NODE 196,Pipe Nodes
 Component Set,91,BRANCH,SMSTORE3 ZN SERVICE WATER LOOP DEMAND INLET BRANCH,PIPE:ADIABATIC,PIPE ADIABATIC 24,NODE 198,NODE 207,Pipe Nodes
 Component Set,92,BRANCH,SMSTORE3 ZN SERVICE WATER LOOP DEMAND BRANCH 1,PIPE:ADIABATIC,PIPE ADIABATIC 22,NODE 200,NODE 205,Pipe Nodes
 Component Set,93,BRANCH,SMSTORE3 ZN SERVICE WATER LOOP DEMAND BRANCH 2,WATERUSE:CONNECTIONS,WATER USE CONNECTIONS 5,NODE 209,NODE 210,DHW Nodes
 Component Set,94,BRANCH,SMSTORE3 ZN SERVICE WATER LOOP DEMAND BYPASS BRANCH,PIPE:ADIABATIC,SMSTORE3 ZN SERVICE WATER LOOP DEMAND BYPASS PIPE,SMSTORE3 ZN SERVICE WATER LOOP DEMAND BYPASS PIPE INLET NODE,SMSTORE3 ZN SERVICE WATER LOOP DEMAND BYPASS PIPE OUTLET NODE,Pipe Nodes
 Component Set,95,BRANCH,SMSTORE3 ZN SERVICE WATER LOOP DEMAND OUTLET BRANCH,PIPE:ADIABATIC,PIPE ADIABATIC 25,NODE 208,NODE 199,Pipe Nodes
 Component Set,96,BRANCH,SMSTORE5 ZN SERVICE WATER LOOP SUPPLY INLET BRANCH,PUMP:CONSTANTSPEED,SERVICE WATER LOOP PUMP 5,NODE 211,NODE 217,Water Nodes
 Component Set,97,BRANCH,SMSTORE5 ZN SERVICE WATER LOOP SUPPLY BRANCH 1,WATERHEATER:MIXED,40GAL ELECTRICITY WATER HEATER - 40KBTU/HR 5 1.0 THERM EFF,NODE 213,NODE 218,Use Side Water Nodes
 Component Set,98,BRANCH,SMSTORE5 ZN SERVICE WATER LOOP SUPPLY BRANCH 2,PIPE:ADIABATIC,PIPE ADIABATIC 26,NODE 219,NODE 220,Pipe Nodes
 Component Set,99,BRANCH,SMSTORE5 ZN SERVICE WATER LOOP SUPPLY OUTLET BRANCH,PIPE:ADIABATIC,PIPE ADIABATIC 28,NODE 222,NODE 212,Pipe Nodes
 Component Set,100,BRANCH,SMSTORE5 ZN SERVICE WATER LOOP DEMAND INLET BRANCH,PIPE:ADIABATIC,PIPE ADIABATIC 29,NODE 214,NODE 223,Pipe Nodes
 Component Set,101,BRANCH,SMSTORE5 ZN SERVICE WATER LOOP DEMAND BRANCH 1,PIPE:ADIABATIC,PIPE ADIABATIC 27,NODE 216,NODE 221,Pipe Nodes
 Component Set,102,BRANCH,SMSTORE5 ZN SERVICE WATER LOOP DEMAND BRANCH 2,WATERUSE:CONNECTIONS,WATER USE CONNECTIONS 6,NODE 225,NODE 226,DHW Nodes
 Component Set,103,BRANCH,SMSTORE5 ZN SERVICE WATER LOOP DEMAND BYPASS BRANCH,PIPE:ADIABATIC,SMSTORE5 ZN SERVICE WATER LOOP DEMAND BYPASS PIPE,SMSTORE5 ZN SERVICE WATER LOOP DEMAND BYPASS PIPE INLET NODE,SMSTORE5 ZN SERVICE WATER LOOP DEMAND BYPASS PIPE OUTLET NODE,Pipe Nodes
 Component Set,104,BRANCH,SMSTORE5 ZN SERVICE WATER LOOP DEMAND OUTLET BRANCH,PIPE:ADIABATIC,PIPE ADIABATIC 30,NODE 224,NODE 215,Pipe Nodes
 Component Set,105,BRANCH,SMSTORE6 ZN SERVICE WATER LOOP SUPPLY INLET BRANCH,PUMP:CONSTANTSPEED,SERVICE WATER LOOP PUMP 6,NODE 227,NODE 233,Water Nodes
 Component Set,106,BRANCH,SMSTORE6 ZN SERVICE WATER LOOP SUPPLY BRANCH 1,WATERHEATER:MIXED,40GAL ELECTRICITY WATER HEATER - 40KBTU/HR 6 1.0 THERM EFF,NODE 229,NODE 234,Use Side Water Nodes
 Component Set,107,BRANCH,SMSTORE6 ZN SERVICE WATER LOOP SUPPLY BRANCH 2,PIPE:ADIABATIC,PIPE ADIABATIC 31,NODE 235,NODE 236,Pipe Nodes
 Component Set,108,BRANCH,SMSTORE6 ZN SERVICE WATER LOOP SUPPLY OUTLET BRANCH,PIPE:ADIABATIC,PIPE ADIABATIC 33,NODE 238,NODE 228,Pipe Nodes
 Component Set,109,BRANCH,SMSTORE6 ZN SERVICE WATER LOOP DEMAND INLET BRANCH,PIPE:ADIABATIC,PIPE ADIABATIC 34,NODE 230,NODE 239,Pipe Nodes
 Component Set,110,BRANCH,SMSTORE6 ZN SERVICE WATER LOOP DEMAND BRANCH 1,PIPE:ADIABATIC,PIPE ADIABATIC 32,NODE 232,NODE 237,Pipe Nodes
 Component Set,111,BRANCH,SMSTORE6 ZN SERVICE WATER LOOP DEMAND BRANCH 2,WATERUSE:CONNECTIONS,WATER USE CONNECTIONS 7,NODE 241,NODE 242,DHW Nodes
 Component Set,112,BRANCH,SMSTORE6 ZN SERVICE WATER LOOP DEMAND BYPASS BRANCH,PIPE:ADIABATIC,SMSTORE6 ZN SERVICE WATER LOOP DEMAND BYPASS PIPE,SMSTORE6 ZN SERVICE WATER LOOP DEMAND BYPASS PIPE INLET NODE,SMSTORE6 ZN SERVICE WATER LOOP DEMAND BYPASS PIPE OUTLET NODE,Pipe Nodes
 Component Set,113,BRANCH,SMSTORE6 ZN SERVICE WATER LOOP DEMAND OUTLET BRANCH,PIPE:ADIABATIC,PIPE ADIABATIC 35,NODE 240,NODE 231,Pipe Nodes
 Component Set,114,AIRLOOPHVAC:OUTDOORAIRSYSTEM,LGSTORE1 ZN PSZ-AC_1 OA SYS,OUTDOORAIR:MIXER,LGSTORE1 ZN PSZ-AC_1 OA SYS OUTDOOR AIR MIXER,NODE 16,NODE 21,Air Nodes
 Component Set,115,AIRLOOPHVAC:OUTDOORAIRSYSTEM,LGSTORE2 ZN PSZ-AC_6 OA SYS,OUTDOORAIR:MIXER,LGSTORE2 ZN PSZ-AC_6 OA SYS OUTDOOR AIR MIXER,NODE 76,NODE 81,Air Nodes
 Component Set,116,AIRLOOPHVAC:OUTDOORAIRSYSTEM,SMSTORE1 ZN PSZ-AC_2 OA SYS,OUTDOORAIR:MIXER,SMSTORE1 ZN PSZ-AC_2 OA SYS OUTDOOR AIR MIXER,NODE 28,NODE 33,Air Nodes
 Component Set,117,AIRLOOPHVAC:OUTDOORAIRSYSTEM,SMSTORE2 ZN PSZ-AC_3 OA SYS,OUTDOORAIR:MIXER,SMSTORE2 ZN PSZ-AC_3 OA SYS OUTDOOR AIR MIXER,NODE 40,NODE 45,Air Nodes
 Component Set,118,AIRLOOPHVAC:OUTDOORAIRSYSTEM,SMSTORE3 ZN PSZ-AC_4 OA SYS,OUTDOORAIR:MIXER,SMSTORE3 ZN PSZ-AC_4 OA SYS OUTDOOR AIR MIXER,NODE 52,NODE 57,Air Nodes
 Component Set,119,AIRLOOPHVAC:OUTDOORAIRSYSTEM,SMSTORE4 ZN PSZ-AC_5 OA SYS,OUTDOORAIR:MIXER,SMSTORE4 ZN PSZ-AC_5 OA SYS OUTDOOR AIR MIXER,NODE 64,NODE 69,Air Nodes
 Component Set,120,AIRLOOPHVAC:OUTDOORAIRSYSTEM,SMSTORE5 ZN PSZ-AC_7 OA SYS,OUTDOORAIR:MIXER,SMSTORE5 ZN PSZ-AC_7 OA SYS OUTDOOR AIR MIXER,NODE 88,NODE 93,Air Nodes
 Component Set,121,AIRLOOPHVAC:OUTDOORAIRSYSTEM,SMSTORE6 ZN PSZ-AC_8 OA SYS,OUTDOORAIR:MIXER,SMSTORE6 ZN PSZ-AC_8 OA SYS OUTDOOR AIR MIXER,NODE 100,NODE 105,Air Nodes
 Component Set,122,AIRLOOPHVAC:OUTDOORAIRSYSTEM,SMSTORE7 ZN PSZ-AC_9 OA SYS,OUTDOORAIR:MIXER,SMSTORE7 ZN PSZ-AC_9 OA SYS OUTDOOR AIR MIXER,NODE 112,NODE 117,Air Nodes
 Component Set,123,AIRLOOPHVAC:OUTDOORAIRSYSTEM,SMSTORE8 ZN PSZ-AC_10 OA SYS,OUTDOORAIR:MIXER,SMSTORE8 ZN PSZ-AC_10 OA SYS OUTDOOR AIR MIXER,NODE 124,NODE 129,Air Nodes
 Component Set,124,COILSYSTEM:COOLING:DX,LGSTORE1 ZN PSZ-AC_1 2SPD DX AC CLG COIL 180KBTU/HR 9.7EER COILSYSTEM,COIL:COOLING:DX:TWOSPEED,LGSTORE1 ZN PSZ-AC_1 2SPD DX AC CLG COIL 180KBTU/HR 9.7EER,NODE 21,NODE 20,Air Nodes
 Component Set,125,COILSYSTEM:COOLING:DX,LGSTORE2 ZN PSZ-AC_6 2SPD DX AC CLG COIL 159KBTU/HR 9.7EER COILSYSTEM,COIL:COOLING:DX:TWOSPEED,LGSTORE2 ZN PSZ-AC_6 2SPD DX AC CLG COIL 159KBTU/HR 9.7EER,NODE 81,NODE 80,Air Nodes
 Component Set,126,COILSYSTEM:COOLING:DX,SMSTORE1 ZN PSZ-AC_2 2SPD DX AC CLG COIL 92KBTU/HR 10.3EER COILSYSTEM,COIL:COOLING:DX:TWOSPEED,SMSTORE1 ZN PSZ-AC_2 2SPD DX AC CLG COIL 92KBTU/HR 10.3EER,NODE 33,NODE 32,Air Nodes
 Component Set,127,COILSYSTEM:COOLING:DX,SMSTORE2 ZN PSZ-AC_3 2SPD DX AC CLG COIL 87KBTU/HR 10.3EER COILSYSTEM,COIL:COOLING:DX:TWOSPEED,SMSTORE2 ZN PSZ-AC_3 2SPD DX AC CLG COIL 87KBTU/HR 10.3EER,NODE 45,NODE 44,Air Nodes
 Component Set,128,COILSYSTEM:COOLING:DX,SMSTORE3 ZN PSZ-AC_4 2SPD DX AC CLG COIL 87KBTU/HR 10.3EER COILSYSTEM,COIL:COOLING:DX:TWOSPEED,SMSTORE3 ZN PSZ-AC_4 2SPD DX AC CLG COIL 87KBTU/HR 10.3EER,NODE 57,NODE 56,Air Nodes
 Component Set,129,COILSYSTEM:COOLING:DX,SMSTORE4 ZN PSZ-AC_5 2SPD DX AC CLG COIL 87KBTU/HR 10.3EER COILSYSTEM,COIL:COOLING:DX:TWOSPEED,SMSTORE4 ZN PSZ-AC_5 2SPD DX AC CLG COIL 87KBTU/HR 10.3EER,NODE 69,NODE 68,Air Nodes
 Component Set,130,COILSYSTEM:COOLING:DX,SMSTORE5 ZN PSZ-AC_7 2SPD DX AC CLG COIL 87KBTU/HR 10.3EER COILSYSTEM,COIL:COOLING:DX:TWOSPEED,SMSTORE5 ZN PSZ-AC_7 2SPD DX AC CLG COIL 87KBTU/HR 10.3EER,NODE 93,NODE 92,Air Nodes
 Component Set,131,COILSYSTEM:COOLING:DX,SMSTORE6 ZN PSZ-AC_8 2SPD DX AC CLG COIL 87KBTU/HR 10.3EER COILSYSTEM,COIL:COOLING:DX:TWOSPEED,SMSTORE6 ZN PSZ-AC_8 2SPD DX AC CLG COIL 87KBTU/HR 10.3EER,NODE 105,NODE 104,Air Nodes
 Component Set,132,COILSYSTEM:COOLING:DX,SMSTORE7 ZN PSZ-AC_9 2SPD DX AC CLG COIL 88KBTU/HR 10.3EER COILSYSTEM,COIL:COOLING:DX:TWOSPEED,SMSTORE7 ZN PSZ-AC_9 2SPD DX AC CLG COIL 88KBTU/HR 10.3EER,NODE 117,NODE 116,Air Nodes
 Component Set,133,COILSYSTEM:COOLING:DX,SMSTORE8 ZN PSZ-AC_10 2SPD DX AC CLG COIL 97KBTU/HR 10.3EER COILSYSTEM,COIL:COOLING:DX:TWOSPEED,SMSTORE8 ZN PSZ-AC_10 2SPD DX AC CLG COIL 97KBTU/HR 10.3EER,NODE 129,NODE 128,Air Nodes
! ===============================================================
! <# Plant Loops>,<Number of Plant Loops>
 #Plant Loops,7
! <Plant Loop>,<Plant Loop Name>,<Loop Type>,<Inlet Node Name>,<Outlet Node Name>,<Branch List>,<Connector List>
! <Plant Loop Connector>,<Connector Type>,<Connector Name>,<Loop Name>,<Loop Type>,<Number of Inlets/Outlets>
! <Plant Loop Connector Branches>,<Connector Node Count>,<Connector Type>,<Connector Name>,<Inlet Branch>,<Outlet Branch>,<Loop Name>,<Loop Type>
! <Plant Loop Connector Nodes>,<Connector Node Count>,<Connector Type>,<Connector Name>,<Inlet Node>,<Outlet Node>,<Loop Name>,<Loop Type>
! <Plant Loop Supply Connection>,<Plant Loop Name>,<Supply Side Outlet Node Name>,<Demand Side Inlet Node Name>
! <Plant Loop Return Connection>,<Plant Loop Name>,<Demand Side Outlet Node Name>,<Supply Side Inlet Node Name>
 Plant Loop,LGSTORE1 ZN SERVICE WATER LOOP,Demand,NODE 134,NODE 135,LGSTORE1 ZN SERVICE WATER LOOP DEMAND BRANCHES,LGSTORE1 ZN SERVICE WATER LOOP DEMAND CONNECTOR LIST
   Plant Loop Connector,Splitter,LGSTORE1 ZN SERVICE WATER LOOP DEMAND SPLITTER,LGSTORE1 ZN SERVICE WATER LOOP,Demand,3
     Plant Loop Connector Branches,1,Splitter,LGSTORE1 ZN SERVICE WATER LOOP DEMAND SPLITTER,LGSTORE1 ZN SERVICE WATER LOOP DEMAND INLET BRANCH,LGSTORE1 ZN SERVICE WATER LOOP DEMAND BRANCH 1,LGSTORE1 ZN SERVICE WATER LOOP,Demand
     Plant Loop Connector Nodes,   1,Splitter,LGSTORE1 ZN SERVICE WATER LOOP DEMAND SPLITTER,NODE 143,NODE 136,LGSTORE1 ZN SERVICE WATER LOOP,Demand
     Plant Loop Connector Branches,2,Splitter,LGSTORE1 ZN SERVICE WATER LOOP DEMAND SPLITTER,LGSTORE1 ZN SERVICE WATER LOOP DEMAND INLET BRANCH,LGSTORE1 ZN SERVICE WATER LOOP DEMAND BRANCH 2,LGSTORE1 ZN SERVICE WATER LOOP,Demand
     Plant Loop Connector Nodes,   2,Splitter,LGSTORE1 ZN SERVICE WATER LOOP DEMAND SPLITTER,NODE 143,NODE 145,LGSTORE1 ZN SERVICE WATER LOOP,Demand
     Plant Loop Connector Branches,3,Splitter,LGSTORE1 ZN SERVICE WATER LOOP DEMAND SPLITTER,LGSTORE1 ZN SERVICE WATER LOOP DEMAND INLET BRANCH,LGSTORE1 ZN SERVICE WATER LOOP DEMAND BYPASS BRANCH,LGSTORE1 ZN SERVICE WATER LOOP,Demand
     Plant Loop Connector Nodes,   3,Splitter,LGSTORE1 ZN SERVICE WATER LOOP DEMAND SPLITTER,NODE 143,LGSTORE1 ZN SERVICE WATER LOOP DEMAND BYPASS PIPE INLET NODE,LGSTORE1 ZN SERVICE WATER LOOP,Demand
   Plant Loop Connector,Mixer,LGSTORE1 ZN SERVICE WATER LOOP DEMAND MIXER,LGSTORE1 ZN SERVICE WATER LOOP,Demand,3
     Plant Loop Connector Branches,1,Mixer,LGSTORE1 ZN SERVICE WATER LOOP DEMAND MIXER,LGSTORE1 ZN SERVICE WATER LOOP DEMAND BRANCH 1,LGSTORE1 ZN SERVICE WATER LOOP DEMAND OUTLET BRANCH,LGSTORE1 ZN SERVICE WATER LOOP,Demand
     Plant Loop Connector Nodes,   1,Mixer,LGSTORE1 ZN SERVICE WATER LOOP DEMAND MIXER,NODE 141,NODE 144,LGSTORE1 ZN SERVICE WATER LOOP,Demand
     Plant Loop Connector Branches,2,Mixer,LGSTORE1 ZN SERVICE WATER LOOP DEMAND MIXER,LGSTORE1 ZN SERVICE WATER LOOP DEMAND BRANCH 2,LGSTORE1 ZN SERVICE WATER LOOP DEMAND OUTLET BRANCH,LGSTORE1 ZN SERVICE WATER LOOP,Demand
     Plant Loop Connector Nodes,   2,Mixer,LGSTORE1 ZN SERVICE WATER LOOP DEMAND MIXER,NODE 146,NODE 144,LGSTORE1 ZN SERVICE WATER LOOP,Demand
     Plant Loop Connector Branches,3,Mixer,LGSTORE1 ZN SERVICE WATER LOOP DEMAND MIXER,LGSTORE1 ZN SERVICE WATER LOOP DEMAND BYPASS BRANCH,LGSTORE1 ZN SERVICE WATER LOOP DEMAND OUTLET BRANCH,LGSTORE1 ZN SERVICE WATER LOOP,Demand
     Plant Loop Connector Nodes,   3,Mixer,LGSTORE1 ZN SERVICE WATER LOOP DEMAND MIXER,LGSTORE1 ZN SERVICE WATER LOOP DEMAND BYPASS PIPE OUTLET NODE,NODE 144,LGSTORE1 ZN SERVICE WATER LOOP,Demand
 Plant Loop,LGSTORE1 ZN SERVICE WATER LOOP,Supply,NODE 131,NODE 132,LGSTORE1 ZN SERVICE WATER LOOP SUPPLY BRANCHES,LGSTORE1 ZN SERVICE WATER LOOP SUPPLY CONNECTOR LIST
   Plant Loop Connector,Splitter,LGSTORE1 ZN SERVICE WATER LOOP SUPPLY SPLITTER,LGSTORE1 ZN SERVICE WATER LOOP,Supply,2
     Plant Loop Connector Branches,1,Splitter,LGSTORE1 ZN SERVICE WATER LOOP SUPPLY SPLITTER,LGSTORE1 ZN SERVICE WATER LOOP SUPPLY INLET BRANCH,LGSTORE1 ZN SERVICE WATER LOOP SUPPLY BRANCH 1,LGSTORE1 ZN SERVICE WATER LOOP,Supply
     Plant Loop Connector Nodes,   1,Splitter,LGSTORE1 ZN SERVICE WATER LOOP SUPPLY SPLITTER,NODE 137,NODE 133,LGSTORE1 ZN SERVICE WATER LOOP,Supply
     Plant Loop Connector Branches,2,Splitter,LGSTORE1 ZN SERVICE WATER LOOP SUPPLY SPLITTER,LGSTORE1 ZN SERVICE WATER LOOP SUPPLY INLET BRANCH,LGSTORE1 ZN SERVICE WATER LOOP SUPPLY BRANCH 2,LGSTORE1 ZN SERVICE WATER LOOP,Supply
     Plant Loop Connector Nodes,   2,Splitter,LGSTORE1 ZN SERVICE WATER LOOP SUPPLY SPLITTER,NODE 137,NODE 139,LGSTORE1 ZN SERVICE WATER LOOP,Supply
   Plant Loop Connector,Mixer,LGSTORE1 ZN SERVICE WATER LOOP SUPPLY MIXER,LGSTORE1 ZN SERVICE WATER LOOP,Supply,2
     Plant Loop Connector Branches,1,Mixer,LGSTORE1 ZN SERVICE WATER LOOP SUPPLY MIXER,LGSTORE1 ZN SERVICE WATER LOOP SUPPLY BRANCH 1,LGSTORE1 ZN SERVICE WATER LOOP SUPPLY OUTLET BRANCH,LGSTORE1 ZN SERVICE WATER LOOP,Supply
     Plant Loop Connector Nodes,   1,Mixer,LGSTORE1 ZN SERVICE WATER LOOP SUPPLY MIXER,NODE 138,NODE 142,LGSTORE1 ZN SERVICE WATER LOOP,Supply
     Plant Loop Connector Branches,2,Mixer,LGSTORE1 ZN SERVICE WATER LOOP SUPPLY MIXER,LGSTORE1 ZN SERVICE WATER LOOP SUPPLY BRANCH 2,LGSTORE1 ZN SERVICE WATER LOOP SUPPLY OUTLET BRANCH,LGSTORE1 ZN SERVICE WATER LOOP,Supply
     Plant Loop Connector Nodes,   2,Mixer,LGSTORE1 ZN SERVICE WATER LOOP SUPPLY MIXER,NODE 140,NODE 142,LGSTORE1 ZN SERVICE WATER LOOP,Supply
 Plant Loop Supply Connection,LGSTORE1 ZN SERVICE WATER LOOP,NODE 132,NODE 134
 Plant Loop Return Connection,LGSTORE1 ZN SERVICE WATER LOOP,NODE 135,NODE 131
 Plant Loop,LGSTORE2 ZN SERVICE WATER LOOP,Demand,NODE 150,NODE 151,LGSTORE2 ZN SERVICE WATER LOOP DEMAND BRANCHES,LGSTORE2 ZN SERVICE WATER LOOP DEMAND CONNECTOR LIST
   Plant Loop Connector,Splitter,LGSTORE2 ZN SERVICE WATER LOOP DEMAND SPLITTER,LGSTORE2 ZN SERVICE WATER LOOP,Demand,3
     Plant Loop Connector Branches,1,Splitter,LGSTORE2 ZN SERVICE WATER LOOP DEMAND SPLITTER,LGSTORE2 ZN SERVICE WATER LOOP DEMAND INLET BRANCH,LGSTORE2 ZN SERVICE WATER LOOP DEMAND BRANCH 1,LGSTORE2 ZN SERVICE WATER LOOP,Demand
     Plant Loop Connector Nodes,   1,Splitter,LGSTORE2 ZN SERVICE WATER LOOP DEMAND SPLITTER,NODE 159,NODE 152,LGSTORE2 ZN SERVICE WATER LOOP,Demand
     Plant Loop Connector Branches,2,Splitter,LGSTORE2 ZN SERVICE WATER LOOP DEMAND SPLITTER,LGSTORE2 ZN SERVICE WATER LOOP DEMAND INLET BRANCH,LGSTORE2 ZN SERVICE WATER LOOP DEMAND BRANCH 2,LGSTORE2 ZN SERVICE WATER LOOP,Demand
     Plant Loop Connector Nodes,   2,Splitter,LGSTORE2 ZN SERVICE WATER LOOP DEMAND SPLITTER,NODE 159,NODE 161,LGSTORE2 ZN SERVICE WATER LOOP,Demand
     Plant Loop Connector Branches,3,Splitter,LGSTORE2 ZN SERVICE WATER LOOP DEMAND SPLITTER,LGSTORE2 ZN SERVICE WATER LOOP DEMAND INLET BRANCH,LGSTORE2 ZN SERVICE WATER LOOP DEMAND BYPASS BRANCH,LGSTORE2 ZN SERVICE WATER LOOP,Demand
     Plant Loop Connector Nodes,   3,Splitter,LGSTORE2 ZN SERVICE WATER LOOP DEMAND SPLITTER,NODE 159,LGSTORE2 ZN SERVICE WATER LOOP DEMAND BYPASS PIPE INLET NODE,LGSTORE2 ZN SERVICE WATER LOOP,Demand
   Plant Loop Connector,Mixer,LGSTORE2 ZN SERVICE WATER LOOP DEMAND MIXER,LGSTORE2 ZN SERVICE WATER LOOP,Demand,3
     Plant Loop Connector Branches,1,Mixer,LGSTORE2 ZN SERVICE WATER LOOP DEMAND MIXER,LGSTORE2 ZN SERVICE WATER LOOP DEMAND BRANCH 1,LGSTORE2 ZN SERVICE WATER LOOP DEMAND OUTLET BRANCH,LGSTORE2 ZN SERVICE WATER LOOP,Demand
     Plant Loop Connector Nodes,   1,Mixer,LGSTORE2 ZN SERVICE WATER LOOP DEMAND MIXER,NODE 157,NODE 160,LGSTORE2 ZN SERVICE WATER LOOP,Demand
     Plant Loop Connector Branches,2,Mixer,LGSTORE2 ZN SERVICE WATER LOOP DEMAND MIXER,LGSTORE2 ZN SERVICE WATER LOOP DEMAND BRANCH 2,LGSTORE2 ZN SERVICE WATER LOOP DEMAND OUTLET BRANCH,LGSTORE2 ZN SERVICE WATER LOOP,Demand
     Plant Loop Connector Nodes,   2,Mixer,LGSTORE2 ZN SERVICE WATER LOOP DEMAND MIXER,NODE 162,NODE 160,LGSTORE2 ZN SERVICE WATER LOOP,Demand
     Plant Loop Connector Branches,3,Mixer,LGSTORE2 ZN SERVICE WATER LOOP DEMAND MIXER,LGSTORE2 ZN SERVICE WATER LOOP DEMAND BYPASS BRANCH,LGSTORE2 ZN SERVICE WATER LOOP DEMAND OUTLET BRANCH,LGSTORE2 ZN SERVICE WATER LOOP,Demand
     Plant Loop Connector Nodes,   3,Mixer,LGSTORE2 ZN SERVICE WATER LOOP DEMAND MIXER,LGSTORE2 ZN SERVICE WATER LOOP DEMAND BYPASS PIPE OUTLET NODE,NODE 160,LGSTORE2 ZN SERVICE WATER LOOP,Demand
 Plant Loop,LGSTORE2 ZN SERVICE WATER LOOP,Supply,NODE 147,NODE 148,LGSTORE2 ZN SERVICE WATER LOOP SUPPLY BRANCHES,LGSTORE2 ZN SERVICE WATER LOOP SUPPLY CONNECTOR LIST
   Plant Loop Connector,Splitter,LGSTORE2 ZN SERVICE WATER LOOP SUPPLY SPLITTER,LGSTORE2 ZN SERVICE WATER LOOP,Supply,2
     Plant Loop Connector Branches,1,Splitter,LGSTORE2 ZN SERVICE WATER LOOP SUPPLY SPLITTER,LGSTORE2 ZN SERVICE WATER LOOP SUPPLY INLET BRANCH,LGSTORE2 ZN SERVICE WATER LOOP SUPPLY BRANCH 1,LGSTORE2 ZN SERVICE WATER LOOP,Supply
     Plant Loop Connector Nodes,   1,Splitter,LGSTORE2 ZN SERVICE WATER LOOP SUPPLY SPLITTER,NODE 153,NODE 149,LGSTORE2 ZN SERVICE WATER LOOP,Supply
     Plant Loop Connector Branches,2,Splitter,LGSTORE2 ZN SERVICE WATER LOOP SUPPLY SPLITTER,LGSTORE2 ZN SERVICE WATER LOOP SUPPLY INLET BRANCH,LGSTORE2 ZN SERVICE WATER LOOP SUPPLY BRANCH 2,LGSTORE2 ZN SERVICE WATER LOOP,Supply
     Plant Loop Connector Nodes,   2,Splitter,LGSTORE2 ZN SERVICE WATER LOOP SUPPLY SPLITTER,NODE 153,NODE 155,LGSTORE2 ZN SERVICE WATER LOOP,Supply
   Plant Loop Connector,Mixer,LGSTORE2 ZN SERVICE WATER LOOP SUPPLY MIXER,LGSTORE2 ZN SERVICE WATER LOOP,Supply,2
     Plant Loop Connector Branches,1,Mixer,LGSTORE2 ZN SERVICE WATER LOOP SUPPLY MIXER,LGSTORE2 ZN SERVICE WATER LOOP SUPPLY BRANCH 1,LGSTORE2 ZN SERVICE WATER LOOP SUPPLY OUTLET BRANCH,LGSTORE2 ZN SERVICE WATER LOOP,Supply
     Plant Loop Connector Nodes,   1,Mixer,LGSTORE2 ZN SERVICE WATER LOOP SUPPLY MIXER,NODE 154,NODE 158,LGSTORE2 ZN SERVICE WATER LOOP,Supply
     Plant Loop Connector Branches,2,Mixer,LGSTORE2 ZN SERVICE WATER LOOP SUPPLY MIXER,LGSTORE2 ZN SERVICE WATER LOOP SUPPLY BRANCH 2,LGSTORE2 ZN SERVICE WATER LOOP SUPPLY OUTLET BRANCH,LGSTORE2 ZN SERVICE WATER LOOP,Supply
     Plant Loop Connector Nodes,   2,Mixer,LGSTORE2 ZN SERVICE WATER LOOP SUPPLY MIXER,NODE 156,NODE 158,LGSTORE2 ZN SERVICE WATER LOOP,Supply
 Plant Loop Supply Connection,LGSTORE2 ZN SERVICE WATER LOOP,NODE 148,NODE 150
 Plant Loop Return Connection,LGSTORE2 ZN SERVICE WATER LOOP,NODE 151,NODE 147
 Plant Loop,SMSTORE1 ZN SERVICE WATER LOOP,Demand,NODE 166,NODE 167,SMSTORE1 ZN SERVICE WATER LOOP DEMAND BRANCHES,SMSTORE1 ZN SERVICE WATER LOOP DEMAND CONNECTOR LIST
   Plant Loop Connector,Splitter,SMSTORE1 ZN SERVICE WATER LOOP DEMAND SPLITTER,SMSTORE1 ZN SERVICE WATER LOOP,Demand,3
     Plant Loop Connector Branches,1,Splitter,SMSTORE1 ZN SERVICE WATER LOOP DEMAND SPLITTER,SMSTORE1 ZN SERVICE WATER LOOP DEMAND INLET BRANCH,SMSTORE1 ZN SERVICE WATER LOOP DEMAND BRANCH 1,SMSTORE1 ZN SERVICE WATER LOOP,Demand
     Plant Loop Connector Nodes,   1,Splitter,SMSTORE1 ZN SERVICE WATER LOOP DEMAND SPLITTER,NODE 175,NODE 168,SMSTORE1 ZN SERVICE WATER LOOP,Demand
     Plant Loop Connector Branches,2,Splitter,SMSTORE1 ZN SERVICE WATER LOOP DEMAND SPLITTER,SMSTORE1 ZN SERVICE WATER LOOP DEMAND INLET BRANCH,SMSTORE1 ZN SERVICE WATER LOOP DEMAND BRANCH 2,SMSTORE1 ZN SERVICE WATER LOOP,Demand
     Plant Loop Connector Nodes,   2,Splitter,SMSTORE1 ZN SERVICE WATER LOOP DEMAND SPLITTER,NODE 175,NODE 177,SMSTORE1 ZN SERVICE WATER LOOP,Demand
     Plant Loop Connector Branches,3,Splitter,SMSTORE1 ZN SERVICE WATER LOOP DEMAND SPLITTER,SMSTORE1 ZN SERVICE WATER LOOP DEMAND INLET BRANCH,SMSTORE1 ZN SERVICE WATER LOOP DEMAND BYPASS BRANCH,SMSTORE1 ZN SERVICE WATER LOOP,Demand
     Plant Loop Connector Nodes,   3,Splitter,SMSTORE1 ZN SERVICE WATER LOOP DEMAND SPLITTER,NODE 175,SMSTORE1 ZN SERVICE WATER LOOP DEMAND BYPASS PIPE INLET NODE,SMSTORE1 ZN SERVICE WATER LOOP,Demand
   Plant Loop Connector,Mixer,SMSTORE1 ZN SERVICE WATER LOOP DEMAND MIXER,SMSTORE1 ZN SERVICE WATER LOOP,Demand,3
     Plant Loop Connector Branches,1,Mixer,SMSTORE1 ZN SERVICE WATER LOOP DEMAND MIXER,SMSTORE1 ZN SERVICE WATER LOOP DEMAND BRANCH 1,SMSTORE1 ZN SERVICE WATER LOOP DEMAND OUTLET BRANCH,SMSTORE1 ZN SERVICE WATER LOOP,Demand
     Plant Loop Connector Nodes,   1,Mixer,SMSTORE1 ZN SERVICE WATER LOOP DEMAND MIXER,NODE 173,NODE 176,SMSTORE1 ZN SERVICE WATER LOOP,Demand
     Plant Loop Connector Branches,2,Mixer,SMSTORE1 ZN SERVICE WATER LOOP DEMAND MIXER,SMSTORE1 ZN SERVICE WATER LOOP DEMAND BRANCH 2,SMSTORE1 ZN SERVICE WATER LOOP DEMAND OUTLET BRANCH,SMSTORE1 ZN SERVICE WATER LOOP,Demand
     Plant Loop Connector Nodes,   2,Mixer,SMSTORE1 ZN SERVICE WATER LOOP DEMAND MIXER,NODE 178,NODE 176,SMSTORE1 ZN SERVICE WATER LOOP,Demand
     Plant Loop Connector Branches,3,Mixer,SMSTORE1 ZN SERVICE WATER LOOP DEMAND MIXER,SMSTORE1 ZN SERVICE WATER LOOP DEMAND BYPASS BRANCH,SMSTORE1 ZN SERVICE WATER LOOP DEMAND OUTLET BRANCH,SMSTORE1 ZN SERVICE WATER LOOP,Demand
     Plant Loop Connector Nodes,   3,Mixer,SMSTORE1 ZN SERVICE WATER LOOP DEMAND MIXER,SMSTORE1 ZN SERVICE WATER LOOP DEMAND BYPASS PIPE OUTLET NODE,NODE 176,SMSTORE1 ZN SERVICE WATER LOOP,Demand
 Plant Loop,SMSTORE1 ZN SERVICE WATER LOOP,Supply,NODE 163,NODE 164,SMSTORE1 ZN SERVICE WATER LOOP SUPPLY BRANCHES,SMSTORE1 ZN SERVICE WATER LOOP SUPPLY CONNECTOR LIST
   Plant Loop Connector,Splitter,SMSTORE1 ZN SERVICE WATER LOOP SUPPLY SPLITTER,SMSTORE1 ZN SERVICE WATER LOOP,Supply,2
     Plant Loop Connector Branches,1,Splitter,SMSTORE1 ZN SERVICE WATER LOOP SUPPLY SPLITTER,SMSTORE1 ZN SERVICE WATER LOOP SUPPLY INLET BRANCH,SMSTORE1 ZN SERVICE WATER LOOP SUPPLY BRANCH 1,SMSTORE1 ZN SERVICE WATER LOOP,Supply
     Plant Loop Connector Nodes,   1,Splitter,SMSTORE1 ZN SERVICE WATER LOOP SUPPLY SPLITTER,NODE 169,NODE 165,SMSTORE1 ZN SERVICE WATER LOOP,Supply
     Plant Loop Connector Branches,2,Splitter,SMSTORE1 ZN SERVICE WATER LOOP SUPPLY SPLITTER,SMSTORE1 ZN SERVICE WATER LOOP SUPPLY INLET BRANCH,SMSTORE1 ZN SERVICE WATER LOOP SUPPLY BRANCH 2,SMSTORE1 ZN SERVICE WATER LOOP,Supply
     Plant Loop Connector Nodes,   2,Splitter,SMSTORE1 ZN SERVICE WATER LOOP SUPPLY SPLITTER,NODE 169,NODE 171,SMSTORE1 ZN SERVICE WATER LOOP,Supply
   Plant Loop Connector,Mixer,SMSTORE1 ZN SERVICE WATER LOOP SUPPLY MIXER,SMSTORE1 ZN SERVICE WATER LOOP,Supply,2
     Plant Loop Connector Branches,1,Mixer,SMSTORE1 ZN SERVICE WATER LOOP SUPPLY MIXER,SMSTORE1 ZN SERVICE WATER LOOP SUPPLY BRANCH 1,SMSTORE1 ZN SERVICE WATER LOOP SUPPLY OUTLET BRANCH,SMSTORE1 ZN SERVICE WATER LOOP,Supply
     Plant Loop Connector Nodes,   1,Mixer,SMSTORE1 ZN SERVICE WATER LOOP SUPPLY MIXER,NODE 170,NODE 174,SMSTORE1 ZN SERVICE WATER LOOP,Supply
     Plant Loop Connector Branches,2,Mixer,SMSTORE1 ZN SERVICE WATER LOOP SUPPLY MIXER,SMSTORE1 ZN SERVICE WATER LOOP SUPPLY BRANCH 2,SMSTORE1 ZN SERVICE WATER LOOP SUPPLY OUTLET BRANCH,SMSTORE1 ZN SERVICE WATER LOOP,Supply
     Plant Loop Connector Nodes,   2,Mixer,SMSTORE1 ZN SERVICE WATER LOOP SUPPLY MIXER,NODE 172,NODE 174,SMSTORE1 ZN SERVICE WATER LOOP,Supply
 Plant Loop Supply Connection,SMSTORE1 ZN SERVICE WATER LOOP,NODE 164,NODE 166
 Plant Loop Return Connection,SMSTORE1 ZN SERVICE WATER LOOP,NODE 167,NODE 163
 Plant Loop,SMSTORE2 ZN SERVICE WATER LOOP,Demand,NODE 182,NODE 183,SMSTORE2 ZN SERVICE WATER LOOP DEMAND BRANCHES,SMSTORE2 ZN SERVICE WATER LOOP DEMAND CONNECTOR LIST
   Plant Loop Connector,Splitter,SMSTORE2 ZN SERVICE WATER LOOP DEMAND SPLITTER,SMSTORE2 ZN SERVICE WATER LOOP,Demand,3
     Plant Loop Connector Branches,1,Splitter,SMSTORE2 ZN SERVICE WATER LOOP DEMAND SPLITTER,SMSTORE2 ZN SERVICE WATER LOOP DEMAND INLET BRANCH,SMSTORE2 ZN SERVICE WATER LOOP DEMAND BRANCH 1,SMSTORE2 ZN SERVICE WATER LOOP,Demand
     Plant Loop Connector Nodes,   1,Splitter,SMSTORE2 ZN SERVICE WATER LOOP DEMAND SPLITTER,NODE 191,NODE 184,SMSTORE2 ZN SERVICE WATER LOOP,Demand
     Plant Loop Connector Branches,2,Splitter,SMSTORE2 ZN SERVICE WATER LOOP DEMAND SPLITTER,SMSTORE2 ZN SERVICE WATER LOOP DEMAND INLET BRANCH,SMSTORE2 ZN SERVICE WATER LOOP DEMAND BRANCH 2,SMSTORE2 ZN SERVICE WATER LOOP,Demand
     Plant Loop Connector Nodes,   2,Splitter,SMSTORE2 ZN SERVICE WATER LOOP DEMAND SPLITTER,NODE 191,NODE 193,SMSTORE2 ZN SERVICE WATER LOOP,Demand
     Plant Loop Connector Branches,3,Splitter,SMSTORE2 ZN SERVICE WATER LOOP DEMAND SPLITTER,SMSTORE2 ZN SERVICE WATER LOOP DEMAND INLET BRANCH,SMSTORE2 ZN SERVICE WATER LOOP DEMAND BYPASS BRANCH,SMSTORE2 ZN SERVICE WATER LOOP,Demand
     Plant Loop Connector Nodes,   3,Splitter,SMSTORE2 ZN SERVICE WATER LOOP DEMAND SPLITTER,NODE 191,SMSTORE2 ZN SERVICE WATER LOOP DEMAND BYPASS PIPE INLET NODE,SMSTORE2 ZN SERVICE WATER LOOP,Demand
   Plant Loop Connector,Mixer,SMSTORE2 ZN SERVICE WATER LOOP DEMAND MIXER,SMSTORE2 ZN SERVICE WATER LOOP,Demand,3
     Plant Loop Connector Branches,1,Mixer,SMSTORE2 ZN SERVICE WATER LOOP DEMAND MIXER,SMSTORE2 ZN SERVICE WATER LOOP DEMAND BRANCH 1,SMSTORE2 ZN SERVICE WATER LOOP DEMAND OUTLET BRANCH,SMSTORE2 ZN SERVICE WATER LOOP,Demand
     Plant Loop Connector Nodes,   1,Mixer,SMSTORE2 ZN SERVICE WATER LOOP DEMAND MIXER,NODE 189,NODE 192,SMSTORE2 ZN SERVICE WATER LOOP,Demand
     Plant Loop Connector Branches,2,Mixer,SMSTORE2 ZN SERVICE WATER LOOP DEMAND MIXER,SMSTORE2 ZN SERVICE WATER LOOP DEMAND BRANCH 2,SMSTORE2 ZN SERVICE WATER LOOP DEMAND OUTLET BRANCH,SMSTORE2 ZN SERVICE WATER LOOP,Demand
     Plant Loop Connector Nodes,   2,Mixer,SMSTORE2 ZN SERVICE WATER LOOP DEMAND MIXER,NODE 194,NODE 192,SMSTORE2 ZN SERVICE WATER LOOP,Demand
     Plant Loop Connector Branches,3,Mixer,SMSTORE2 ZN SERVICE WATER LOOP DEMAND MIXER,SMSTORE2 ZN SERVICE WATER LOOP DEMAND BYPASS BRANCH,SMSTORE2 ZN SERVICE WATER LOOP DEMAND OUTLET BRANCH,SMSTORE2 ZN SERVICE WATER LOOP,Demand
     Plant Loop Connector Nodes,   3,Mixer,SMSTORE2 ZN SERVICE WATER LOOP DEMAND MIXER,SMSTORE2 ZN SERVICE WATER LOOP DEMAND BYPASS PIPE OUTLET NODE,NODE 192,SMSTORE2 ZN SERVICE WATER LOOP,Demand
 Plant Loop,SMSTORE2 ZN SERVICE WATER LOOP,Supply,NODE 179,NODE 180,SMSTORE2 ZN SERVICE WATER LOOP SUPPLY BRANCHES,SMSTORE2 ZN SERVICE WATER LOOP SUPPLY CONNECTOR LIST
   Plant Loop Connector,Splitter,SMSTORE2 ZN SERVICE WATER LOOP SUPPLY SPLITTER,SMSTORE2 ZN SERVICE WATER LOOP,Supply,2
     Plant Loop Connector Branches,1,Splitter,SMSTORE2 ZN SERVICE WATER LOOP SUPPLY SPLITTER,SMSTORE2 ZN SERVICE WATER LOOP SUPPLY INLET BRANCH,SMSTORE2 ZN SERVICE WATER LOOP SUPPLY BRANCH 1,SMSTORE2 ZN SERVICE WATER LOOP,Supply
     Plant Loop Connector Nodes,   1,Splitter,SMSTORE2 ZN SERVICE WATER LOOP SUPPLY SPLITTER,NODE 185,NODE 181,SMSTORE2 ZN SERVICE WATER LOOP,Supply
     Plant Loop Connector Branches,2,Splitter,SMSTORE2 ZN SERVICE WATER LOOP SUPPLY SPLITTER,SMSTORE2 ZN SERVICE WATER LOOP SUPPLY INLET BRANCH,SMSTORE2 ZN SERVICE WATER LOOP SUPPLY BRANCH 2,SMSTORE2 ZN SERVICE WATER LOOP,Supply
     Plant Loop Connector Nodes,   2,Splitter,SMSTORE2 ZN SERVICE WATER LOOP SUPPLY SPLITTER,NODE 185,NODE 187,SMSTORE2 ZN SERVICE WATER LOOP,Supply
   Plant Loop Connector,Mixer,SMSTORE2 ZN SERVICE WATER LOOP SUPPLY MIXER,SMSTORE2 ZN SERVICE WATER LOOP,Supply,2
     Plant Loop Connector Branches,1,Mixer,SMSTORE2 ZN SERVICE WATER LOOP SUPPLY MIXER,SMSTORE2 ZN SERVICE WATER LOOP SUPPLY BRANCH 1,SMSTORE2 ZN SERVICE WATER LOOP SUPPLY OUTLET BRANCH,SMSTORE2 ZN SERVICE WATER LOOP,Supply
     Plant Loop Connector Nodes,   1,Mixer,SMSTORE2 ZN SERVICE WATER LOOP SUPPLY MIXER,NODE 186,NODE 190,SMSTORE2 ZN SERVICE WATER LOOP,Supply
     Plant Loop Connector Branches,2,Mixer,SMSTORE2 ZN SERVICE WATER LOOP SUPPLY MIXER,SMSTORE2 ZN SERVICE WATER LOOP SUPPLY BRANCH 2,SMSTORE2 ZN SERVICE WATER LOOP SUPPLY OUTLET BRANCH,SMSTORE2 ZN SERVICE WATER LOOP,Supply
     Plant Loop Connector Nodes,   2,Mixer,SMSTORE2 ZN SERVICE WATER LOOP SUPPLY MIXER,NODE 188,NODE 190,SMSTORE2 ZN SERVICE WATER LOOP,Supply
 Plant Loop Supply Connection,SMSTORE2 ZN SERVICE WATER LOOP,NODE 180,NODE 182
 Plant Loop Return Connection,SMSTORE2 ZN SERVICE WATER LOOP,NODE 183,NODE 179
 Plant Loop,SMSTORE3 ZN SERVICE WATER LOOP,Demand,NODE 198,NODE 199,SMSTORE3 ZN SERVICE WATER LOOP DEMAND BRANCHES,SMSTORE3 ZN SERVICE WATER LOOP DEMAND CONNECTOR LIST
   Plant Loop Connector,Splitter,SMSTORE3 ZN SERVICE WATER LOOP DEMAND SPLITTER,SMSTORE3 ZN SERVICE WATER LOOP,Demand,3
     Plant Loop Connector Branches,1,Splitter,SMSTORE3 ZN SERVICE WATER LOOP DEMAND SPLITTER,SMSTORE3 ZN SERVICE WATER LOOP DEMAND INLET BRANCH,SMSTORE3 ZN SERVICE WATER LOOP DEMAND BRANCH 1,SMSTORE3 ZN SERVICE WATER LOOP,Demand
     Plant Loop Connector Nodes,   1,Splitter,SMSTORE3 ZN SERVICE WATER LOOP DEMAND SPLITTER,NODE 207,NODE 200,SMSTORE3 ZN SERVICE WATER LOOP,Demand
     Plant Loop Connector Branches,2,Splitter,SMSTORE3 ZN SERVICE WATER LOOP DEMAND SPLITTER,SMSTORE3 ZN SERVICE WATER LOOP DEMAND INLET BRANCH,SMSTORE3 ZN SERVICE WATER LOOP DEMAND BRANCH 2,SMSTORE3 ZN SERVICE WATER LOOP,Demand
     Plant Loop Connector Nodes,   2,Splitter,SMSTORE3 ZN SERVICE WATER LOOP DEMAND SPLITTER,NODE 207,NODE 209,SMSTORE3 ZN SERVICE WATER LOOP,Demand
     Plant Loop Connector Branches,3,Splitter,SMSTORE3 ZN SERVICE WATER LOOP DEMAND SPLITTER,SMSTORE3 ZN SERVICE WATER LOOP DEMAND INLET BRANCH,SMSTORE3 ZN SERVICE WATER LOOP DEMAND BYPASS BRANCH,SMSTORE3 ZN SERVICE WATER LOOP,Demand
     Plant Loop Connector Nodes,   3,Splitter,SMSTORE3 ZN SERVICE WATER LOOP DEMAND SPLITTER,NODE 207,SMSTORE3 ZN SERVICE WATER LOOP DEMAND BYPASS PIPE INLET NODE,SMSTORE3 ZN SERVICE WATER LOOP,Demand
   Plant Loop Connector,Mixer,SMSTORE3 ZN SERVICE WATER LOOP DEMAND MIXER,SMSTORE3 ZN SERVICE WATER LOOP,Demand,3
     Plant Loop Connector Branches,1,Mixer,SMSTORE3 ZN SERVICE WATER LOOP DEMAND MIXER,SMSTORE3 ZN SERVICE WATER LOOP DEMAND BRANCH 1,SMSTORE3 ZN SERVICE WATER LOOP DEMAND OUTLET BRANCH,SMSTORE3 ZN SERVICE WATER LOOP,Demand
     Plant Loop Connector Nodes,   1,Mixer,SMSTORE3 ZN SERVICE WATER LOOP DEMAND MIXER,NODE 205,NODE 208,SMSTORE3 ZN SERVICE WATER LOOP,Demand
     Plant Loop Connector Branches,2,Mixer,SMSTORE3 ZN SERVICE WATER LOOP DEMAND MIXER,SMSTORE3 ZN SERVICE WATER LOOP DEMAND BRANCH 2,SMSTORE3 ZN SERVICE WATER LOOP DEMAND OUTLET BRANCH,SMSTORE3 ZN SERVICE WATER LOOP,Demand
     Plant Loop Connector Nodes,   2,Mixer,SMSTORE3 ZN SERVICE WATER LOOP DEMAND MIXER,NODE 210,NODE 208,SMSTORE3 ZN SERVICE WATER LOOP,Demand
     Plant Loop Connector Branches,3,Mixer,SMSTORE3 ZN SERVICE WATER LOOP DEMAND MIXER,SMSTORE3 ZN SERVICE WATER LOOP DEMAND BYPASS BRANCH,SMSTORE3 ZN SERVICE WATER LOOP DEMAND OUTLET BRANCH,SMSTORE3 ZN SERVICE WATER LOOP,Demand
[...]
 Non-Parent Node Connection,NODE 11,OUTDOORAIR:MIXER,LGSTORE1 ZN PSZ-AC_1 OA SYS OUTDOOR AIR MIXER,Inlet,1
 Non-Parent Node Connection,NODE 81,OUTDOORAIR:MIXER,LGSTORE2 ZN PSZ-AC_6 OA SYS OUTDOOR AIR MIXER,Outlet,1
 Non-Parent Node Connection,NODE 76,OUTDOORAIR:MIXER,LGSTORE2 ZN PSZ-AC_6 OA SYS OUTDOOR AIR MIXER,Inlet,1
 Non-Parent Node Connection,NODE 77,OUTDOORAIR:MIXER,LGSTORE2 ZN PSZ-AC_6 OA SYS OUTDOOR AIR MIXER,ReliefAir,1
 Non-Parent Node Connection,NODE 71,OUTDOORAIR:MIXER,LGSTORE2 ZN PSZ-AC_6 OA SYS OUTDOOR AIR MIXER,Inlet,1
 Non-Parent Node Connection,NODE 33,OUTDOORAIR:MIXER,SMSTORE1 ZN PSZ-AC_2 OA SYS OUTDOOR AIR MIXER,Outlet,1
 Non-Parent Node Connection,NODE 28,OUTDOORAIR:MIXER,SMSTORE1 ZN PSZ-AC_2 OA SYS OUTDOOR AIR MIXER,Inlet,1
 Non-Parent Node Connection,NODE 29,OUTDOORAIR:MIXER,SMSTORE1 ZN PSZ-AC_2 OA SYS OUTDOOR AIR MIXER,ReliefAir,1
 Non-Parent Node Connection,NODE 23,OUTDOORAIR:MIXER,SMSTORE1 ZN PSZ-AC_2 OA SYS OUTDOOR AIR MIXER,Inlet,1
 Non-Parent Node Connection,NODE 45,OUTDOORAIR:MIXER,SMSTORE2 ZN PSZ-AC_3 OA SYS OUTDOOR AIR MIXER,Outlet,1
 Non-Parent Node Connection,NODE 40,OUTDOORAIR:MIXER,SMSTORE2 ZN PSZ-AC_3 OA SYS OUTDOOR AIR MIXER,Inlet,1
 Non-Parent Node Connection,NODE 41,OUTDOORAIR:MIXER,SMSTORE2 ZN PSZ-AC_3 OA SYS OUTDOOR AIR MIXER,ReliefAir,1
 Non-Parent Node Connection,NODE 35,OUTDOORAIR:MIXER,SMSTORE2 ZN PSZ-AC_3 OA SYS OUTDOOR AIR MIXER,Inlet,1
 Non-Parent Node Connection,NODE 57,OUTDOORAIR:MIXER,SMSTORE3 ZN PSZ-AC_4 OA SYS OUTDOOR AIR MIXER,Outlet,1
 Non-Parent Node Connection,NODE 52,OUTDOORAIR:MIXER,SMSTORE3 ZN PSZ-AC_4 OA SYS OUTDOOR AIR MIXER,Inlet,1
 Non-Parent Node Connection,NODE 53,OUTDOORAIR:MIXER,SMSTORE3 ZN PSZ-AC_4 OA SYS OUTDOOR AIR MIXER,ReliefAir,1
 Non-Parent Node Connection,NODE 47,OUTDOORAIR:MIXER,SMSTORE3 ZN PSZ-AC_4 OA SYS OUTDOOR AIR MIXER,Inlet,1
 Non-Parent Node Connection,NODE 69,OUTDOORAIR:MIXER,SMSTORE4 ZN PSZ-AC_5 OA SYS OUTDOOR AIR MIXER,Outlet,1
 Non-Parent Node Connection,NODE 64,OUTDOORAIR:MIXER,SMSTORE4 ZN PSZ-AC_5 OA SYS OUTDOOR AIR MIXER,Inlet,1
 Non-Parent Node Connection,NODE 65,OUTDOORAIR:MIXER,SMSTORE4 ZN PSZ-AC_5 OA SYS OUTDOOR AIR MIXER,ReliefAir,1
 Non-Parent Node Connection,NODE 59,OUTDOORAIR:MIXER,SMSTORE4 ZN PSZ-AC_5 OA SYS OUTDOOR AIR MIXER,Inlet,1
 Non-Parent Node Connection,NODE 93,OUTDOORAIR:MIXER,SMSTORE5 ZN PSZ-AC_7 OA SYS OUTDOOR AIR MIXER,Outlet,1
 Non-Parent Node Connection,NODE 88,OUTDOORAIR:MIXER,SMSTORE5 ZN PSZ-AC_7 OA SYS OUTDOOR AIR MIXER,Inlet,1
 Non-Parent Node Connection,NODE 89,OUTDOORAIR:MIXER,SMSTORE5 ZN PSZ-AC_7 OA SYS OUTDOOR AIR MIXER,ReliefAir,1
 Non-Parent Node Connection,NODE 83,OUTDOORAIR:MIXER,SMSTORE5 ZN PSZ-AC_7 OA SYS OUTDOOR AIR MIXER,Inlet,1
 Non-Parent Node Connection,NODE 105,OUTDOORAIR:MIXER,SMSTORE6 ZN PSZ-AC_8 OA SYS OUTDOOR AIR MIXER,Outlet,1
 Non-Parent Node Connection,NODE 100,OUTDOORAIR:MIXER,SMSTORE6 ZN PSZ-AC_8 OA SYS OUTDOOR AIR MIXER,Inlet,1
 Non-Parent Node Connection,NODE 101,OUTDOORAIR:MIXER,SMSTORE6 ZN PSZ-AC_8 OA SYS OUTDOOR AIR MIXER,ReliefAir,1
 Non-Parent Node Connection,NODE 95,OUTDOORAIR:MIXER,SMSTORE6 ZN PSZ-AC_8 OA SYS OUTDOOR AIR MIXER,Inlet,1
 Non-Parent Node Connection,NODE 117,OUTDOORAIR:MIXER,SMSTORE7 ZN PSZ-AC_9 OA SYS OUTDOOR AIR MIXER,Outlet,1
 Non-Parent Node Connection,NODE 112,OUTDOORAIR:MIXER,SMSTORE7 ZN PSZ-AC_9 OA SYS OUTDOOR AIR MIXER,Inlet,1
 Non-Parent Node Connection,NODE 113,OUTDOORAIR:MIXER,SMSTORE7 ZN PSZ-AC_9 OA SYS OUTDOOR AIR MIXER,ReliefAir,1
 Non-Parent Node Connection,NODE 107,OUTDOORAIR:MIXER,SMSTORE7 ZN PSZ-AC_9 OA SYS OUTDOOR AIR MIXER,Inlet,1
 Non-Parent Node Connection,NODE 129,OUTDOORAIR:MIXER,SMSTORE8 ZN PSZ-AC_10 OA SYS OUTDOOR AIR MIXER,Outlet,1
 Non-Parent Node Connection,NODE 124,OUTDOORAIR:MIXER,SMSTORE8 ZN PSZ-AC_10 OA SYS OUTDOOR AIR MIXER,Inlet,1
 Non-Parent Node Connection,NODE 125,OUTDOORAIR:MIXER,SMSTORE8 ZN PSZ-AC_10 OA SYS OUTDOOR AIR MIXER,ReliefAir,1
 Non-Parent Node Connection,NODE 119,OUTDOORAIR:MIXER,SMSTORE8 ZN PSZ-AC_10 OA SYS OUTDOOR AIR MIXER,Inlet,1
 Non-Parent Node Connection,NODE 18,FAN:CONSTANTVOLUME,LGSTORE1 ZN PSZ-AC_1 FAN,Inlet,1
 Non-Parent Node Connection,NODE 12,FAN:CONSTANTVOLUME,LGSTORE1 ZN PSZ-AC_1 FAN,Outlet,1
 Non-Parent Node Connection,NODE 78,FAN:CONSTANTVOLUME,LGSTORE2 ZN PSZ-AC_6 FAN,Inlet,1
 Non-Parent Node Connection,NODE 72,FAN:CONSTANTVOLUME,LGSTORE2 ZN PSZ-AC_6 FAN,Outlet,1
 Non-Parent Node Connection,NODE 30,FAN:CONSTANTVOLUME,SMSTORE1 ZN PSZ-AC_2 FAN,Inlet,1
 Non-Parent Node Connection,NODE 24,FAN:CONSTANTVOLUME,SMSTORE1 ZN PSZ-AC_2 FAN,Outlet,1
 Non-Parent Node Connection,NODE 42,FAN:CONSTANTVOLUME,SMSTORE2 ZN PSZ-AC_3 FAN,Inlet,1
 Non-Parent Node Connection,NODE 36,FAN:CONSTANTVOLUME,SMSTORE2 ZN PSZ-AC_3 FAN,Outlet,1
 Non-Parent Node Connection,NODE 54,FAN:CONSTANTVOLUME,SMSTORE3 ZN PSZ-AC_4 FAN,Inlet,1
 Non-Parent Node Connection,NODE 48,FAN:CONSTANTVOLUME,SMSTORE3 ZN PSZ-AC_4 FAN,Outlet,1
 Non-Parent Node Connection,NODE 66,FAN:CONSTANTVOLUME,SMSTORE4 ZN PSZ-AC_5 FAN,Inlet,1
 Non-Parent Node Connection,NODE 60,FAN:CONSTANTVOLUME,SMSTORE4 ZN PSZ-AC_5 FAN,Outlet,1
 Non-Parent Node Connection,NODE 90,FAN:CONSTANTVOLUME,SMSTORE5 ZN PSZ-AC_7 FAN,Inlet,1
 Non-Parent Node Connection,NODE 84,FAN:CONSTANTVOLUME,SMSTORE5 ZN PSZ-AC_7 FAN,Outlet,1
 Non-Parent Node Connection,NODE 102,FAN:CONSTANTVOLUME,SMSTORE6 ZN PSZ-AC_8 FAN,Inlet,1
 Non-Parent Node Connection,NODE 96,FAN:CONSTANTVOLUME,SMSTORE6 ZN PSZ-AC_8 FAN,Outlet,1
 Non-Parent Node Connection,NODE 114,FAN:CONSTANTVOLUME,SMSTORE7 ZN PSZ-AC_9 FAN,Inlet,1
 Non-Parent Node Connection,NODE 108,FAN:CONSTANTVOLUME,SMSTORE7 ZN PSZ-AC_9 FAN,Outlet,1
 Non-Parent Node Connection,NODE 126,FAN:CONSTANTVOLUME,SMSTORE8 ZN PSZ-AC_10 FAN,Inlet,1
 Non-Parent Node Connection,NODE 120,FAN:CONSTANTVOLUME,SMSTORE8 ZN PSZ-AC_10 FAN,Outlet,1
 Non-Parent Node Connection,NODE 21,CONTROLLER:OUTDOORAIR,LGSTORE1 ZN PSZ-AC_1 OA SYS CONTROLLER,Sensor,1
 Non-Parent Node Connection,NODE 16,CONTROLLER:OUTDOORAIR,LGSTORE1 ZN PSZ-AC_1 OA SYS CONTROLLER,Actuator,1
 Non-Parent Node Connection,NODE 17,CONTROLLER:OUTDOORAIR,LGSTORE1 ZN PSZ-AC_1 OA SYS CONTROLLER,Actuator,1
 Non-Parent Node Connection,NODE 11,CONTROLLER:OUTDOORAIR,LGSTORE1 ZN PSZ-AC_1 OA SYS CONTROLLER,Sensor,1
 Non-Parent Node Connection,NODE 81,CONTROLLER:OUTDOORAIR,LGSTORE2 ZN PSZ-AC_6 OA SYS CONTROLLER,Sensor,1
 Non-Parent Node Connection,NODE 76,CONTROLLER:OUTDOORAIR,LGSTORE2 ZN PSZ-AC_6 OA SYS CONTROLLER,Actuator,1
 Non-Parent Node Connection,NODE 77,CONTROLLER:OUTDOORAIR,LGSTORE2 ZN PSZ-AC_6 OA SYS CONTROLLER,Actuator,1
 Non-Parent Node Connection,NODE 71,CONTROLLER:OUTDOORAIR,LGSTORE2 ZN PSZ-AC_6 OA SYS CONTROLLER,Sensor,1
 Non-Parent Node Connection,NODE 33,CONTROLLER:OUTDOORAIR,SMSTORE1 ZN PSZ-AC_2 OA SYS CONTROLLER,Sensor,1
 Non-Parent Node Connection,NODE 28,CONTROLLER:OUTDOORAIR,SMSTORE1 ZN PSZ-AC_2 OA SYS CONTROLLER,Actuator,1
 Non-Parent Node Connection,NODE 29,CONTROLLER:OUTDOORAIR,SMSTORE1 ZN PSZ-AC_2 OA SYS CONTROLLER,Actuator,1
 Non-Parent Node Connection,NODE 23,CONTROLLER:OUTDOORAIR,SMSTORE1 ZN PSZ-AC_2 OA SYS CONTROLLER,Sensor,1
 Non-Parent Node Connection,NODE 45,CONTROLLER:OUTDOORAIR,SMSTORE2 ZN PSZ-AC_3 OA SYS CONTROLLER,Sensor,1
 Non-Parent Node Connection,NODE 40,CONTROLLER:OUTDOORAIR,SMSTORE2 ZN PSZ-AC_3 OA SYS CONTROLLER,Actuator,1
 Non-Parent Node Connection,NODE 41,CONTROLLER:OUTDOORAIR,SMSTORE2 ZN PSZ-AC_3 OA SYS CONTROLLER,Actuator,1
 Non-Parent Node Connection,NODE 35,CONTROLLER:OUTDOORAIR,SMSTORE2 ZN PSZ-AC_3 OA SYS CONTROLLER,Sensor,1
 Non-Parent Node Connection,NODE 57,CONTROLLER:OUTDOORAIR,SMSTORE3 ZN PSZ-AC_4 OA SYS CONTROLLER,Sensor,1
 Non-Parent Node Connection,NODE 52,CONTROLLER:OUTDOORAIR,SMSTORE3 ZN PSZ-AC_4 OA SYS CONTROLLER,Actuator,1
 Non-Parent Node Connection,NODE 53,CONTROLLER:OUTDOORAIR,SMSTORE3 ZN PSZ-AC_4 OA SYS CONTROLLER,Actuator,1
 Non-Parent Node Connection,NODE 47,CONTROLLER:OUTDOORAIR,SMSTORE3 ZN PSZ-AC_4 OA SYS CONTROLLER,Sensor,1
 Non-Parent Node Connection,NODE 69,CONTROLLER:OUTDOORAIR,SMSTORE4 ZN PSZ-AC_5 OA SYS CONTROLLER,Sensor,1
 Non-Parent Node Connection,NODE 64,CONTROLLER:OUTDOORAIR,SMSTORE4 ZN PSZ-AC_5 OA SYS CONTROLLER,Actuator,1
 Non-Parent Node Connection,NODE 65,CONTROLLER:OUTDOORAIR,SMSTORE4 ZN PSZ-AC_5 OA SYS CONTROLLER,Actuator,1
 Non-Parent Node Connection,NODE 59,CONTROLLER:OUTDOORAIR,SMSTORE4 ZN PSZ-AC_5 OA SYS CONTROLLER,Sensor,1
 Non-Parent Node Connection,NODE 93,CONTROLLER:OUTDOORAIR,SMSTORE5 ZN PSZ-AC_7 OA SYS CONTROLLER,Sensor,1
 Non-Parent Node Connection,NODE 88,CONTROLLER:OUTDOORAIR,SMSTORE5 ZN PSZ-AC_7 OA SYS CONTROLLER,Actuator,1
 Non-Parent Node Connection,NODE 89,CONTROLLER:OUTDOORAIR,SMSTORE5 ZN PSZ-AC_7 OA SYS CONTROLLER,Actuator,1
 Non-Parent Node Connection,NODE 83,CONTROLLER:OUTDOORAIR,SMSTORE5 ZN PSZ-AC_7 OA SYS CONTROLLER,Sensor,1
 Non-Parent Node Connection,NODE 105,CONTROLLER:OUTDOORAIR,SMSTORE6 ZN PSZ-AC_8 OA SYS CONTROLLER,Sensor,1
 Non-Parent Node Connection,NODE 100,CONTROLLER:OUTDOORAIR,SMSTORE6 ZN PSZ-AC_8 OA SYS CONTROLLER,Actuator,1
 Non-Parent Node Connection,NODE 101,CONTROLLER:OUTDOORAIR,SMSTORE6 ZN PSZ-AC_8 OA SYS CONTROLLER,Actuator,1
 Non-Parent Node Connection,NODE 95,CONTROLLER:OUTDOORAIR,SMSTORE6 ZN PSZ-AC_8 OA SYS CONTROLLER,Sensor,1
 Non-Parent Node Connection,NODE 117,CONTROLLER:OUTDOORAIR,SMSTORE7 ZN PSZ-AC_9 OA SYS CONTROLLER,Sensor,1
 Non-Parent Node Connection,NODE 112,CONTROLLER:OUTDOORAIR,SMSTORE7 ZN PSZ-AC_9 OA SYS CONTROLLER,Actuator,1
 Non-Parent Node Connection,NODE 113,CONTROLLER:OUTDOORAIR,SMSTORE7 ZN PSZ-AC_9 OA SYS CONTROLLER,Actuator,1
 Non-Parent Node Connection,NODE 107,CONTROLLER:OUTDOORAIR,SMSTORE7 ZN PSZ-AC_9 OA SYS CONTROLLER,Sensor,1
 Non-Parent Node Connection,NODE 129,CONTROLLER:OUTDOORAIR,SMSTORE8 ZN PSZ-AC_10 OA SYS CONTROLLER,Sensor,1
 Non-Parent Node Connection,NODE 124,CONTROLLER:OUTDOORAIR,SMSTORE8 ZN PSZ-AC_10 OA SYS CONTROLLER,Actuator,1
 Non-Parent Node Connection,NODE 125,CONTROLLER:OUTDOORAIR,SMSTORE8 ZN PSZ-AC_10 OA SYS CONTROLLER,Actuator,1
 Non-Parent Node Connection,NODE 119,CONTROLLER:OUTDOORAIR,SMSTORE8 ZN PSZ-AC_10 OA SYS CONTROLLER,Sensor,1
 Non-Parent Node Connection,NODE 21,COIL:COOLING:DX:TWOSPEED,LGSTORE1 ZN PSZ-AC_1 2SPD DX AC CLG COIL 180KBTU/HR 9.7EER,Inlet,1
 Non-Parent Node Connection,NODE 20,COIL:COOLING:DX:TWOSPEED,LGSTORE1 ZN PSZ-AC_1 2SPD DX AC CLG COIL 180KBTU/HR 9.7EER,Outlet,1
 Non-Parent Node Connection,NODE 81,COIL:COOLING:DX:TWOSPEED,LGSTORE2 ZN PSZ-AC_6 2SPD DX AC CLG COIL 159KBTU/HR 9.7EER,Inlet,1
 Non-Parent Node Connection,NODE 80,COIL:COOLING:DX:TWOSPEED,LGSTORE2 ZN PSZ-AC_6 2SPD DX AC CLG COIL 159KBTU/HR 9.7EER,Outlet,1
 Non-Parent Node Connection,NODE 33,COIL:COOLING:DX:TWOSPEED,SMSTORE1 ZN PSZ-AC_2 2SPD DX AC CLG COIL 92KBTU/HR 10.3EER,Inlet,1
 Non-Parent Node Connection,NODE 32,COIL:COOLING:DX:TWOSPEED,SMSTORE1 ZN PSZ-AC_2 2SPD DX AC CLG COIL 92KBTU/HR 10.3EER,Outlet,1
 Non-Parent Node Connection,NODE 45,COIL:COOLING:DX:TWOSPEED,SMSTORE2 ZN PSZ-AC_3 2SPD DX AC CLG COIL 87KBTU/HR 10.3EER,Inlet,1
 Non-Parent Node Connection,NODE 44,COIL:COOLING:DX:TWOSPEED,SMSTORE2 ZN PSZ-AC_3 2SPD DX AC CLG COIL 87KBTU/HR 10.3EER,Outlet,1
 Non-Parent Node Connection,NODE 57,COIL:COOLING:DX:TWOSPEED,SMSTORE3 ZN PSZ-AC_4 2SPD DX AC CLG COIL 87KBTU/HR 10.3EER,Inlet,1
 Non-Parent Node Connection,NODE 56,COIL:COOLING:DX:TWOSPEED,SMSTORE3 ZN PSZ-AC_4 2SPD DX AC CLG COIL 87KBTU/HR 10.3EER,Outlet,1
 Non-Parent Node Connection,NODE 69,COIL:COOLING:DX:TWOSPEED,SMSTORE4 ZN PSZ-AC_5 2SPD DX AC CLG COIL 87KBTU/HR 10.3EER,Inlet,1
 Non-Parent Node Connection,NODE 68,COIL:COOLING:DX:TWOSPEED,SMSTORE4 ZN PSZ-AC_5 2SPD DX AC CLG COIL 87KBTU/HR 10.3EER,Outlet,1
 Non-Parent Node Connection,NODE 93,COIL:COOLING:DX:TWOSPEED,SMSTORE5 ZN PSZ-AC_7 2SPD DX AC CLG COIL 87KBTU/HR 10.3EER,Inlet,1
 Non-Parent Node Connection,NODE 92,COIL:COOLING:DX:TWOSPEED,SMSTORE5 ZN PSZ-AC_7 2SPD DX AC CLG COIL 87KBTU/HR 10.3EER,Outlet,1
 Non-Parent Node Connection,NODE 105,COIL:COOLING:DX:TWOSPEED,SMSTORE6 ZN PSZ-AC_8 2SPD DX AC CLG COIL 87KBTU/HR 10.3EER,Inlet,1
 Non-Parent Node Connection,NODE 104,COIL:COOLING:DX:TWOSPEED,SMSTORE6 ZN PSZ-AC_8 2SPD DX AC CLG COIL 87KBTU/HR 10.3EER,Outlet,1
 Non-Parent Node Connection,NODE 117,COIL:COOLING:DX:TWOSPEED,SMSTORE7 ZN PSZ-AC_9 2SPD DX AC CLG COIL 88KBTU/HR 10.3EER,Inlet,1
 Non-Parent Node Connection,NODE 116,COIL:COOLING:DX:TWOSPEED,SMSTORE7 ZN PSZ-AC_9 2SPD DX AC CLG COIL 88KBTU/HR 10.3EER,Outlet,1
 Non-Parent Node Connection,NODE 129,COIL:COOLING:DX:TWOSPEED,SMSTORE8 ZN PSZ-AC_10 2SPD DX AC CLG COIL 97KBTU/HR 10.3EER,Inlet,1
 Non-Parent Node Connection,NODE 128,COIL:COOLING:DX:TWOSPEED,SMSTORE8 ZN PSZ-AC_10 2SPD DX AC CLG COIL 97KBTU/HR 10.3EER,Outlet,1
 Non-Parent Node Connection,NODE 19,COIL:HEATING:ELECTRIC,LGSTORE1 ZN PSZ-AC_1 NO BACKUP HEAT,Inlet,1
 Non-Parent Node Connection,NODE 18,COIL:HEATING:ELECTRIC,LGSTORE1 ZN PSZ-AC_1 NO BACKUP HEAT,Outlet,1
 Non-Parent Node Connection,NODE 18,COIL:HEATING:ELECTRIC,LGSTORE1 ZN PSZ-AC_1 NO BACKUP HEAT,Sensor,1
 Non-Parent Node Connection,NODE 79,COIL:HEATING:ELECTRIC,LGSTORE2 ZN PSZ-AC_6 NO BACKUP HEAT,Inlet,1
 Non-Parent Node Connection,NODE 78,COIL:HEATING:ELECTRIC,LGSTORE2 ZN PSZ-AC_6 NO BACKUP HEAT,Outlet,1
 Non-Parent Node Connection,NODE 78,COIL:HEATING:ELECTRIC,LGSTORE2 ZN PSZ-AC_6 NO BACKUP HEAT,Sensor,1
 Non-Parent Node Connection,NODE 31,COIL:HEATING:ELECTRIC,SMSTORE1 ZN PSZ-AC_2 NO BACKUP HEAT,Inlet,1
 Non-Parent Node Connection,NODE 30,COIL:HEATING:ELECTRIC,SMSTORE1 ZN PSZ-AC_2 NO BACKUP HEAT,Outlet,1
 Non-Parent Node Connection,NODE 30,COIL:HEATING:ELECTRIC,SMSTORE1 ZN PSZ-AC_2 NO BACKUP HEAT,Sensor,1
 Non-Parent Node Connection,NODE 43,COIL:HEATING:ELECTRIC,SMSTORE2 ZN PSZ-AC_3 NO BACKUP HEAT,Inlet,1
 Non-Parent Node Connection,NODE 42,COIL:HEATING:ELECTRIC,SMSTORE2 ZN PSZ-AC_3 NO BACKUP HEAT,Outlet,1
 Non-Parent Node Connection,NODE 42,COIL:HEATING:ELECTRIC,SMSTORE2 ZN PSZ-AC_3 NO BACKUP HEAT,Sensor,1
 Non-Parent Node Connection,NODE 55,COIL:HEATING:ELECTRIC,SMSTORE3 ZN PSZ-AC_4 NO BACKUP HEAT,Inlet,1
 Non-Parent Node Connection,NODE 54,COIL:HEATING:ELECTRIC,SMSTORE3 ZN PSZ-AC_4 NO BACKUP HEAT,Outlet,1
 Non-Parent Node Connection,NODE 54,COIL:HEATING:ELECTRIC,SMSTORE3 ZN PSZ-AC_4 NO BACKUP HEAT,Sensor,1
 Non-Parent Node Connection,NODE 67,COIL:HEATING:ELECTRIC,SMSTORE4 ZN PSZ-AC_5 NO BACKUP HEAT,Inlet,1
 Non-Parent Node Connection,NODE 66,COIL:HEATING:ELECTRIC,SMSTORE4 ZN PSZ-AC_5 NO BACKUP HEAT,Outlet,1
 Non-Parent Node Connection,NODE 66,COIL:HEATING:ELECTRIC,SMSTORE4 ZN PSZ-AC_5 NO BACKUP HEAT,Sensor,1
 Non-Parent Node Connection,NODE 91,COIL:HEATING:ELECTRIC,SMSTORE5 ZN PSZ-AC_7 NO BACKUP HEAT,Inlet,1
 Non-Parent Node Connection,NODE 90,COIL:HEATING:ELECTRIC,SMSTORE5 ZN PSZ-AC_7 NO BACKUP HEAT,Outlet,1
 Non-Parent Node Connection,NODE 90,COIL:HEATING:ELECTRIC,SMSTORE5 ZN PSZ-AC_7 NO BACKUP HEAT,Sensor,1
 Non-Parent Node Connection,NODE 103,COIL:HEATING:ELECTRIC,SMSTORE6 ZN PSZ-AC_8 NO BACKUP HEAT,Inlet,1
 Non-Parent Node Connection,NODE 102,COIL:HEATING:ELECTRIC,SMSTORE6 ZN PSZ-AC_8 NO BACKUP HEAT,Outlet,1
 Non-Parent Node Connection,NODE 102,COIL:HEATING:ELECTRIC,SMSTORE6 ZN PSZ-AC_8 NO BACKUP HEAT,Sensor,1
 Non-Parent Node Connection,NODE 115,COIL:HEATING:ELECTRIC,SMSTORE7 ZN PSZ-AC_9 NO BACKUP HEAT,Inlet,1
 Non-Parent Node Connection,NODE 114,COIL:HEATING:ELECTRIC,SMSTORE7 ZN PSZ-AC_9 NO BACKUP HEAT,Outlet,1
 Non-Parent Node Connection,NODE 114,COIL:HEATING:ELECTRIC,SMSTORE7 ZN PSZ-AC_9 NO BACKUP HEAT,Sensor,1
 Non-Parent Node Connection,NODE 127,COIL:HEATING:ELECTRIC,SMSTORE8 ZN PSZ-AC_10 NO BACKUP HEAT,Inlet,1
 Non-Parent Node Connection,NODE 126,COIL:HEATING:ELECTRIC,SMSTORE8 ZN PSZ-AC_10 NO BACKUP HEAT,Outlet,1
 Non-Parent Node Connection,NODE 126,COIL:HEATING:ELECTRIC,SMSTORE8 ZN PSZ-AC_10 NO BACKUP HEAT,Sensor,1
 Non-Parent Node Connection,NODE 20,COIL:HEATING:FUEL,LGSTORE1 ZN PSZ-AC_1 GAS HTG COIL,Inlet,1
 Non-Parent Node Connection,NODE 19,COIL:HEATING:FUEL,LGSTORE1 ZN PSZ-AC_1 GAS HTG COIL,Outlet,1
 Non-Parent Node Connection,NODE 19,COIL:HEATING:FUEL,LGSTORE1 ZN PSZ-AC_1 GAS HTG COIL,Sensor,1
 Non-Parent Node Connection,NODE 80,COIL:HEATING:FUEL,LGSTORE2 ZN PSZ-AC_6 GAS HTG COIL,Inlet,1
 Non-Parent Node Connection,NODE 79,COIL:HEATING:FUEL,LGSTORE2 ZN PSZ-AC_6 GAS HTG COIL,Outlet,1
 Non-Parent Node Connection,NODE 79,COIL:HEATING:FUEL,LGSTORE2 ZN PSZ-AC_6 GAS HTG COIL,Sensor,1
 Non-Parent Node Connection,NODE 32,COIL:HEATING:FUEL,SMSTORE1 ZN PSZ-AC_2 GAS HTG COIL,Inlet,1
 Non-Parent Node Connection,NODE 31,COIL:HEATING:FUEL,SMSTORE1 ZN PSZ-AC_2 GAS HTG COIL,Outlet,1
 Non-Parent Node Connection,NODE 31,COIL:HEATING:FUEL,SMSTORE1 ZN PSZ-AC_2 GAS HTG COIL,Sensor,1
 Non-Parent Node Connection,NODE 44,COIL:HEATING:FUEL,SMSTORE2 ZN PSZ-AC_3 GAS HTG COIL,Inlet,1
 Non-Parent Node Connection,NODE 43,COIL:HEATING:FUEL,SMSTORE2 ZN PSZ-AC_3 GAS HTG COIL,Outlet,1
 Non-Parent Node Connection,NODE 43,COIL:HEATING:FUEL,SMSTORE2 ZN PSZ-AC_3 GAS HTG COIL,Sensor,1
 Non-Parent Node Connection,NODE 56,COIL:HEATING:FUEL,SMSTORE3 ZN PSZ-AC_4 GAS HTG COIL,Inlet,1
 Non-Parent Node Connection,NODE 55,COIL:HEATING:FUEL,SMSTORE3 ZN PSZ-AC_4 GAS HTG COIL,Outlet,1
 Non-Parent Node Connection,NODE 55,COIL:HEATING:FUEL,SMSTORE3 ZN PSZ-AC_4 GAS HTG COIL,Sensor,1
 Non-Parent Node Connection,NODE 68,COIL:HEATING:FUEL,SMSTORE4 ZN PSZ-AC_5 GAS HTG COIL,Inlet,1
 Non-Parent Node Connection,NODE 67,COIL:HEATING:FUEL,SMSTORE4 ZN PSZ-AC_5 GAS HTG COIL,Outlet,1
 Non-Parent Node Connection,NODE 67,COIL:HEATING:FUEL,SMSTORE4 ZN PSZ-AC_5 GAS HTG COIL,Sensor,1
 Non-Parent Node Connection,NODE 92,COIL:HEATING:FUEL,SMSTORE5 ZN PSZ-AC_7 GAS HTG COIL,Inlet,1
 Non-Parent Node Connection,NODE 91,COIL:HEATING:FUEL,SMSTORE5 ZN PSZ-AC_7 GAS HTG COIL,Outlet,1
 Non-Parent Node Connection,NODE 91,COIL:HEATING:FUEL,SMSTORE5 ZN PSZ-AC_7 GAS HTG COIL,Sensor,1
 Non-Parent Node Connection,NODE 104,COIL:HEATING:FUEL,SMSTORE6 ZN PSZ-AC_8 GAS HTG COIL,Inlet,1
 Non-Parent Node Connection,NODE 103,COIL:HEATING:FUEL,SMSTORE6 ZN PSZ-AC_8 GAS HTG COIL,Outlet,1
 Non-Parent Node Connection,NODE 103,COIL:HEATING:FUEL,SMSTORE6 ZN PSZ-AC_8 GAS HTG COIL,Sensor,1
 Non-Parent Node Connection,NODE 116,COIL:HEATING:FUEL,SMSTORE7 ZN PSZ-AC_9 GAS HTG COIL,Inlet,1
 Non-Parent Node Connection,NODE 115,COIL:HEATING:FUEL,SMSTORE7 ZN PSZ-AC_9 GAS HTG COIL,Outlet,1
 Non-Parent Node Connection,NODE 115,COIL:HEATING:FUEL,SMSTORE7 ZN PSZ-AC_9 GAS HTG COIL,Sensor,1
 Non-Parent Node Connection,NODE 128,COIL:HEATING:FUEL,SMSTORE8 ZN PSZ-AC_10 GAS HTG COIL,Inlet,1
 Non-Parent Node Connection,NODE 127,COIL:HEATING:FUEL,SMSTORE8 ZN PSZ-AC_10 GAS HTG COIL,Outlet,1
 Non-Parent Node Connection,NODE 127,COIL:HEATING:FUEL,SMSTORE8 ZN PSZ-AC_10 GAS HTG COIL,Sensor,1
 Non-Parent Node Connection,NODE 131,PUMP:CONSTANTSPEED,SERVICE WATER LOOP PUMP,Inlet,1
 Non-Parent Node Connection,NODE 137,PUMP:CONSTANTSPEED,SERVICE WATER LOOP PUMP,Outlet,1
 Non-Parent Node Connection,NODE 147,PUMP:CONSTANTSPEED,SERVICE WATER LOOP PUMP 1,Inlet,1
 Non-Parent Node Connection,NODE 153,PUMP:CONSTANTSPEED,SERVICE WATER LOOP PUMP 1,Outlet,1
 Non-Parent Node Connection,NODE 163,PUMP:CONSTANTSPEED,SERVICE WATER LOOP PUMP 2,Inlet,1
 Non-Parent Node Connection,NODE 169,PUMP:CONSTANTSPEED,SERVICE WATER LOOP PUMP 2,Outlet,1
 Non-Parent Node Connection,NODE 179,PUMP:CONSTANTSPEED,SERVICE WATER LOOP PUMP 3,Inlet,1
 Non-Parent Node Connection,NODE 185,PUMP:CONSTANTSPEED,SERVICE WATER LOOP PUMP 3,Outlet,1
 Non-Parent Node Connection,NODE 195,PUMP:CONSTANTSPEED,SERVICE WATER LOOP PUMP 4,Inlet,1
 Non-Parent Node Connection,NODE 201,PUMP:CONSTANTSPEED,SERVICE WATER LOOP PUMP 4,Outlet,1
 Non-Parent Node Connection,NODE 211,PUMP:CONSTANTSPEED,SERVICE WATER LOOP PUMP 5,Inlet,1
 Non-Parent Node Connection,NODE 217,PUMP:CONSTANTSPEED,SERVICE WATER LOOP PUMP 5,Outlet,1
 Non-Parent Node Connection,NODE 227,PUMP:CONSTANTSPEED,SERVICE WATER LOOP PUMP 6,Inlet,1
 Non-Parent Node Connection,NODE 233,PUMP:CONSTANTSPEED,SERVICE WATER LOOP PUMP 6,Outlet,1
